
#######################################################################
#
#                 Cambridge Crystallographic Data Centre
#                                CCDC 
#
#######################################################################
#
# If this CIF has been generated from an entry in the Cambridge 
# Structural Database, then it will include bibliographic, chemical, 
# crystal, experimental, refinement or atomic coordinate data resulting 
# from the CCDC's data processing and validation procedures.
#
#######################################################################

data_LEJLAP
_chemical_formula_moiety         
'C42 H140 Cu7 Dy2 N28 O156 P4 W44 8-,4(C6 H20 Cu1 N4 2+),10(H2 O1)'
_chemical_name_systematic        
'tetrakis(bis(propane-1,2-diamine)-copper(ii)) tetrakis(\m~11~-phosphato)-tetrahectakis(\m~2~-oxo)-tetradecakis(propane-1,2-diamine)-hexatriacontaoxo-hepta-copper-di-dysprosium-tetratetraconta-tungsten decahydrate'
_symmetry_cell_setting           triclinic
_symmetry_space_group_name_H-M   'P -1'
_symmetry_Int_Tables_number      2
_space_group_name_Hall           '-P 1'
loop_
_symmetry_equiv_pos_site_id
_symmetry_equiv_pos_as_xyz
1 x,y,z
2 -x,-y,-z
_cell_length_a                   13.419(4)
_cell_length_b                   20.100(6)
_cell_length_c                   24.461(7)
_cell_angle_alpha                103.031(4)
_cell_angle_beta                 104.182(5)
_cell_angle_gamma                98.486(5)
_cell_volume                     6086.51
_exptl_crystal_colour            purple
_exptl_crystal_description       prism
_cell_formula_units_Z            1
loop_
_atom_site_label
_atom_site_type_symbol
_atom_site_fract_x
_atom_site_fract_y
_atom_site_fract_z
Dy1 Dy 0.243899(1) 0.24815 0.25686
W1 W 0.034592(1) -0.10385 0.33414
W2 W 0.110263(1) 0.05108 0.44029
W3 W 0.294970(1) -0.02265 0.39261
W4 W 0.311774(1) -0.03062 0.24439
W5 W 0.052517(1) -0.10865 0.18555
W6 W -0.148042(1) -0.02845 0.23809
W7 W -0.070705(1) 0.12520 0.34519
W8 W 0.210163(1) 0.21402 0.40314
W9 W 0.391899(1) 0.14246 0.35491
W10 W 0.152534(1) 0.04794 0.15989
W11 W -0.046032(1) 0.12639 0.20990
W12 W 0.077530(1) 0.26994 0.10419
W13 W 0.054301(1) 0.38156 0.23568
W14 W 0.059936(1) 0.52228 0.17418
W15 W 0.083546(1) 0.40815 0.03912
W16 W 0.276792(1) 0.31616 0.04712
W17 W 0.457302(1) 0.32624 0.19152
W18 W 0.436928(1) 0.43006 0.31415
W19 W 0.232706(1) 0.53708 0.30490
W20 W 0.458057(1) 0.58335 0.25042
W21 W 0.475785(1) 0.47695 0.12551
W22 W 0.284018(1) 0.57170 0.11858
P1 P 0.129173(3) 0.052536(2) 0.300216(2)
P2 P 0.267461(3) 0.427250(2) 0.179627(2)
Cu1 Cu 0.00000 0.00000 0.00000
Cu2 Cu 0.767080(2) 0.525810(1) 0.125640(1)
Cu3 Cu 0.615039(2) 0.198149(2) 0.230454(1)
Cu4 Cu 0.240690(2) 0.762073(2) 0.153513(1)
Cu5 Cu 0.319752(3) 0.393769(2) 0.484787(1)
O9 O -0.027918(14) -0.183129(8) 0.335666(7)
O10 O 0.182238(12) -0.100983(7) 0.370296(6)
O11 O 0.137371(9) 0.009931(6) 0.344963(5)
O12 O 0.061621(11) -0.124306(7) 0.261053(6)
O13 O -0.078113(9) -0.065649(7) 0.298546(6)
O14 O 0.036403(10) -0.046391(7) 0.406589(5)
O15 O 0.093509(11) 0.069259(7) 0.508334(6)
O16 O -0.013982(9) 0.073884(7) 0.397096(6)
O17 O 0.183929(10) 0.132637(7) 0.438950(5)
O18 O 0.236324(11) 0.012629(7) 0.453194(6)
O19 O 0.394692(11) -0.052905(7) 0.433048(7)
O20 O 0.358332(9) 0.063081(6) 0.393805(5)
O21 O 0.307456(10) -0.052723(7) 0.314578(6)
O22 O 0.416823(10) -0.063362(8) 0.232220(6)
O23 O 0.152970(8) 0.009114(6) 0.245954(5)
O24 O 0.270876(9) 0.003027(6) 0.177761(5)
O25 O 0.375062(9) 0.061176(6) 0.290443(5)
O26 O 0.202932(10) -0.110600(7) 0.202645(6)
O27 O -0.002672(11) -0.189850(8) 0.139178(7)
O28 O 0.075547(10) -0.054935(7) 0.135508(6)
O29 O -0.06770(1) -0.075235(7) 0.192402(6)
O30 O -0.268364(12) -0.082985(8) 0.210104(8)
O31 O 0.017983(9) 0.065657(7) 0.282226(5)
O32 O -0.154559(10) 0.034902(7) 0.196030(6)
O33 O -0.168618(9) 0.038131(7) 0.300984(6)
O34 O -0.148673(11) 0.166085(8) 0.381305(6)
O35 O -0.102002(9) 0.154768(7) 0.276800(6)
O36 O 0.060440(9) 0.189594(6) 0.374950(6)
O37 O 0.230218(11) 0.280638(7) 0.464483(6)
O38 O 0.221477(9) 0.260578(6) 0.350903(5)
O39 O 0.352176(9) 0.198971(7) 0.416182(5)
O40 O 0.207937(9) 0.120408(6) 0.325971(5)
O41 O 0.377444(9) 0.199322(6) 0.311039(5)
O42 O 0.525496(11) 0.159925(7) 0.383309(6)
O43 O 0.148150(11) 0.051654(8) 0.090137(6)
O44 O 0.224815(9) 0.130120(6) 0.204463(6)
O45 O 0.019227(10) 0.065543(7) 0.163751(5)
O46 O 0.070227(10) 0.189603(7) 0.241627(6)
O47 O -0.123179(10) 0.157773(7) 0.159589(6)
O48 O -0.017412(11) 0.196371(7) 0.074975(6)
O49 O 0.165903(11) 0.249870(6) 0.050947(5)
O50 O 0.164114(10) 0.251981(6) 0.161862(5)
O51 O 0.205254(9) 0.375299(6) 0.118199(5)
O52 O 0.017738(9) 0.326573(7) 0.047642(5)
O53 O 0.023433(9) 0.330389(7) 0.156455(6)
O54 O -0.055162(10) 0.349610(8) 0.255879(6)
O55 O 0.147928(10) 0.335216(6) 0.261048(6)
O56 O 0.190431(9) 0.455794(6) 0.210735(5)
O57 O 0.120192(9) 0.464406(6) 0.301095(5)
O58 O -0.008278(9) 0.454607(7) 0.198295(5)
O59 O -0.031808(10) 0.572509(7) 0.159925(6)
O60 O 0.132351(9) 0.570168(6) 0.253460(5)
O61 O 0.176283(9) 0.569953(6) 0.155658(5)
O62 O 0.038434(10) 0.458760(7) 0.101095(6)
O63 O 0.002755(12) 0.415847(8) -0.022096(6)
O64 O 0.194411(10) 0.491918(6) 0.061381(5)
O65 O 0.178518(10) 0.360501(7) 0.006909(6)
O66 O 0.314334(11) 0.270164(8) -0.007616(6)
O67 O 0.373894(10) 0.403916(7) 0.066999(6)
O68 O 0.367452(10) 0.299499(6) 0.112778(6)
O69 O 0.383034(9) 0.263797(7) 0.213289(6)
O70 O 0.506425(10) 0.415817(7) 0.168612(6)
O71 O 0.560069(10) 0.288923(7) 0.183414(6)
O72 O 0.337201(8) 0.391608(6) 0.217169(5)
O73 O 0.521027(9) 0.384851(7) 0.268735(6)
O74 O 0.485239(9) 0.514738(6) 0.284898(5)
O75 O 0.524823(10) 0.459806(7) 0.383276(6)
O76 O 0.368086(10) 0.351658(7) 0.318288(5)
O77 O 0.329143(10) 0.480002(6) 0.325048(6)
O78 O 0.243953(12) 0.590612(8) 0.369301(6)
O79 O 0.338268(9) 0.583047(6) 0.280258(5)
O80 O 0.544794(11) 0.656324(7) 0.296131(6)
O81 O 0.336700(9) 0.487539(6) 0.170109(5)
O82 O 0.533459(10) 0.551347(7) 0.194333(6)
O83 O 0.380907(10) 0.622725(6) 0.190259(6)
O84 O 0.575338(10) 0.485208(7) 0.092657(6)
O85 O 0.398869(9) 0.542810(7) 0.094477(6)
O86 O 0.265926(11) 0.638310(7) 0.087291(6)
N1 N -0.066907(15) -0.085649(9) 0.017214(7)
H1 H -0.08910 -0.12060 -0.01620
H2 H -0.01730 -0.09810 0.04270
N2 N -0.103323(11) 0.045926(6) 0.032377(6)
H3 H -0.06970 0.07840 0.06650
H4 H -0.13730 0.06710 0.00710
N3 N 0.755170(17) 0.614110(11) 0.097240(9)
H5 H 0.79260 0.61620 0.07150
H6 H 0.68750 0.61190 0.07870
N4 N 0.769740(14) 0.58946(1) 0.201290(9)
H7 H 0.72270 0.57000 0.21690
H8 H 0.83420 0.60000 0.22720
N5 N 0.777530(15) 0.46436(1) 0.050820(8)
H9 H 0.72530 0.46600 0.02030
H10 H 0.83940 0.47960 0.04480
N6 N 0.766440(13) 0.438410(9) 0.152760(7)
H11 H 0.83090 0.43950 0.17540
H12 H 0.72070 0.43510 0.17400
N7 N 0.472619(13) 0.137068(9) 0.201039(5)
H13 H 0.46750 0.10770 0.22350
H14 H 0.42470 0.16360 0.20400
N8 N 0.633413(12) 0.143630(7) 0.156156(12)
H15 H 0.63440 0.17090 0.13170
H16 H 0.69570 0.13070 0.16390
N9 N 0.761498(12) 0.251392(9) 0.262143(9)
H17 H 0.80490 0.22200 0.26820
H18 H 0.77830 0.27290 0.23610
N10 N 0.595902(9) 0.250544(10) 0.305203(7)
H19 H 0.55570 0.28140 0.29790
H20 H 0.56210 0.22050 0.32030
N11 N 0.13771(2) 0.721259(13) 0.193341(11)
H21 H 0.07990 0.73940 0.18640
H22 H 0.11770 0.67470 0.17750
N12 N 0.34824(2) 0.771315(11) 0.228972(9)
H23 H 0.40050 0.75040 0.22200
H24 H 0.37610 0.81680 0.24760
N13 N 0.139601(13) 0.749407(6) 0.077699(5)
H25 H 0.13120 0.70610 0.05440
H26 H 0.07670 0.75570 0.08210
N14 N 0.336799(16) 0.812212(11) 0.124115(8)
H27 H 0.35940 0.85640 0.14720
H28 H 0.39300 0.79240 0.12560
N15 N 0.21941(2) 0.437917(16) 0.519611(13)
H29 H 0.17110 0.40560 0.52470
H30 H 0.25310 0.46920 0.55440
N16 N 0.229729(17) 0.406445(10) 0.409867(9)
H31 H 0.26080 0.44430 0.40170
H32 H 0.22060 0.36870 0.37970
N17 N 0.41141(2) 0.384743(14) 0.560485(9)
H33 H 0.44560 0.42750 0.58390
H34 H 0.37100 0.36440 0.57920
N18 N 0.435687(10) 0.365647(11) 0.453002(6)
H35 H 0.41480 0.32090 0.43090
H36 H 0.45020 0.39270 0.43000
C1 C -0.156549(19) -0.079317(5) 0.041548(16)
H45 H -0.13900 -0.08430 0.08110
H46 H -0.21760 -0.11560 0.01770
C2 C -0.179659(6) -0.008850(4) 0.041843(6)
H47 H -0.14570 0.00770 0.08420
C3 C -0.284952(8) -0.015485(17) 0.052165(8)
H48 H -0.30900 0.02710 0.05160
H49 H -0.28000 -0.02430 0.08960
H50 H -0.33390 -0.05350 0.02190
C4 C 0.793780(13) 0.676250(11) 0.145960(5)
H51 H 0.76810 0.71620 0.13670
H52 H 0.87000 0.68780 0.16070
C5 C 0.743390(13) 0.648380(6) 0.186600(4)
H53 H 0.66710 0.63750 0.16840
C6 C 0.76953(2) 0.714620(7) 0.234700(7)
H54 H 0.74040 0.70650 0.26530
H55 H 0.74040 0.74990 0.21950
H56 H 0.84460 0.73010 0.25010
C7 C 0.77001(2) 0.396360(15) 0.055010(11)
H57 H 0.83900 0.38560 0.05830
H58 H 0.72320 0.36590 0.01820
C8 C 0.73511(3) 0.377970(15) 0.100340(11)
H59 H 0.65870 0.37300 0.08630
C9 C 0.745520(19) 0.308000(11) 0.11245(1)
H60 H 0.72130 0.27170 0.07620
H61 H 0.70390 0.29860 0.13780
H62 H 0.81800 0.30950 0.13110
C10 C 0.448719(8) 0.095815(11) 0.139252(5)
H63 H 0.41710 0.12190 0.11330
H64 H 0.39910 0.05230 0.13220
C11 C 0.548076(7) 0.080673(7) 0.127164(4)
H65 H 0.56690 0.04660 0.14880
C12 C 0.538351(19) 0.044714(13) 0.064491(5)
H66 H 0.60530 0.03550 0.06140
H67 H 0.51630 0.07430 0.04010
H68 H 0.48730 0.00140 0.05190
C13 C 0.774734(9) 0.301728(16) 0.315469(5)
H69 H 0.77190 0.34650 0.30730
H70 H 0.84460 0.30590 0.34090
C14 C 0.697260(7) 0.288044(15) 0.348227(5)
H71 H 0.72090 0.25190 0.36600
C15 C 0.70612(3) 0.34232(2) 0.396144(16)
H72 H 0.65480 0.32950 0.41540
H73 H 0.69430 0.38310 0.38360
H74 H 0.77540 0.35210 0.42290
C16 C 0.182626(8) 0.735506(16) 0.255349(12)
H75 H 0.15210 0.69860 0.26980
H76 H 0.17060 0.77960 0.27570
C17 C 0.297838(8) 0.738898(19) 0.264411(15)
H77 H 0.30400 0.69000 0.25360
C18 C 0.34162(4) 0.76282(3) 0.330441(19)
H78 H 0.29900 0.73590 0.34750
H79 H 0.34120 0.81140 0.34410
H80 H 0.41250 0.75630 0.34160
C19 C 0.184061(16) 0.802603(7) 0.052229(6)
H81 H 0.14990 0.78870 0.01030
H82 H 0.16660 0.84650 0.06850
C20 C 0.28809(3) 0.81363(2) 0.060868(16)
H83 H 0.29870 0.77060 0.03690
C21 C 0.33279(3) 0.867521(18) 0.039220(14)
H84 H 0.29460 0.86040 -0.00110
H85 H 0.40510 0.86620 0.04220
H86 H 0.32870 0.91220 0.06200
C22 C 0.12604(3) 0.41556(2) 0.419314(17)
H87 H 0.08680 0.37370 0.42390
H88 H 0.08310 0.43090 0.38840
C23 C 0.169666(8) 0.472799(16) 0.476215(7)
H89 H 0.21170 0.51630 0.47490
C24 C 0.077377(8) 0.478907(16) 0.500005(7)
H90 H 0.09910 0.51520 0.53620
H91 H 0.05120 0.43530 0.50670
H92 H 0.02290 0.49010 0.47220
C25 C 0.532234(11) 0.372977(14) 0.501388(7)
H93 H 0.56760 0.42170 0.51860
H94 H 0.58070 0.34720 0.48730
C26 C 0.490587(10) 0.341035(15) 0.548011(7)
H95 H 0.45550 0.29170 0.53040
C27 C 0.59310(1) 0.347703(14) 0.593067(8)
H96 H 0.57950 0.33140 0.62510
H97 H 0.62960 0.39580 0.60730
H98 H 0.63570 0.32020 0.57560
Dy1A Dy -0.243899(1) -0.24815 -0.25686
W1A W -0.034592(1) 0.10385 -0.33414
W2A W -0.110263(1) -0.05108 -0.44029
W3A W -0.294970(1) 0.02265 -0.39261
W4A W -0.311774(1) 0.03062 -0.24439
W5A W -0.052517(1) 0.10865 -0.18555
W6A W 0.148042(1) 0.02845 -0.23809
W7A W 0.070705(1) -0.12520 -0.34519
W8A W -0.210163(1) -0.21402 -0.40314
W9A W -0.391899(1) -0.14246 -0.35491
W10A W -0.152534(1) -0.04794 -0.15989
W11A W 0.046032(1) -0.12639 -0.20990
W12A W -0.077530(1) -0.26994 -0.10419
W13A W -0.054301(1) -0.38156 -0.23568
W14A W -0.059936(1) -0.52228 -0.17418
W15A W -0.083546(1) -0.40815 -0.03912
W16A W -0.276792(1) -0.31616 -0.04712
W17A W -0.457302(1) -0.32624 -0.19152
W18A W -0.436928(1) -0.43006 -0.31415
W19A W -0.232706(1) -0.53708 -0.30490
W20A W -0.458057(1) -0.58335 -0.25042
W21A W -0.475785(1) -0.47695 -0.12551
W22A W -0.284018(1) -0.57170 -0.11858
P1A P -0.129173(3) -0.052536(2) -0.300216(2)
P2A P -0.267461(3) -0.427250(2) -0.179627(2)
Cu2A Cu -0.767080(2) -0.525810(1) -0.125640(1)
Cu3A Cu -0.615039(2) -0.198149(2) -0.230454(1)
Cu5A Cu -0.319752(3) -0.393769(2) -0.484787(1)
O9A O 0.027918(14) 0.183129(8) -0.335666(7)
O10A O -0.182238(12) 0.100983(7) -0.370296(6)
O11A O -0.137371(9) -0.009931(6) -0.344963(5)
O12A O -0.061621(11) 0.124306(7) -0.261053(6)
O13A O 0.078113(9) 0.065649(7) -0.298546(6)
O14A O -0.036403(10) 0.046391(7) -0.406589(5)
O15A O -0.093509(11) -0.069259(7) -0.508334(6)
O16A O 0.013982(9) -0.073884(7) -0.397096(6)
O17A O -0.183929(10) -0.132637(7) -0.438950(5)
O18A O -0.236324(11) -0.012629(7) -0.453194(6)
O19A O -0.394692(11) 0.052905(7) -0.433048(7)
O20A O -0.358332(9) -0.063081(6) -0.393805(5)
O21A O -0.307456(10) 0.052723(7) -0.314578(6)
O22A O -0.416823(10) 0.063362(8) -0.232220(6)
O23A O -0.152970(8) -0.009114(6) -0.245954(5)
O24A O -0.270876(9) -0.003027(6) -0.177761(5)
O25A O -0.375062(9) -0.061176(6) -0.290443(5)
O26A O -0.202932(10) 0.110600(7) -0.202645(6)
O27A O 0.002672(11) 0.189850(8) -0.139178(7)
O28A O -0.075547(10) 0.054935(7) -0.135508(6)
O29A O 0.06770(1) 0.075235(7) -0.192402(6)
O30A O 0.268364(12) 0.082985(8) -0.210104(8)
O31A O -0.017983(9) -0.065657(7) -0.282226(5)
O32A O 0.154559(10) -0.034902(7) -0.196030(6)
O33A O 0.168618(9) -0.038131(7) -0.300984(6)
O34A O 0.148673(11) -0.166085(8) -0.381305(6)
O35A O 0.102002(9) -0.154768(7) -0.276800(6)
O36A O -0.060440(9) -0.189594(6) -0.374950(6)
O37A O -0.230218(11) -0.280638(7) -0.464483(6)
O38A O -0.221477(9) -0.260578(6) -0.350903(5)
O39A O -0.352176(9) -0.198971(7) -0.416182(5)
O40A O -0.207937(9) -0.120408(6) -0.325971(5)
O41A O -0.377444(9) -0.199322(6) -0.311039(5)
O42A O -0.525496(11) -0.159925(7) -0.383309(6)
O43A O -0.148150(11) -0.051654(8) -0.090137(6)
O44A O -0.224815(9) -0.130120(6) -0.204463(6)
O45A O -0.019227(10) -0.065543(7) -0.163751(5)
O46A O -0.070227(10) -0.189603(7) -0.241627(6)
O47A O 0.123179(10) -0.157773(7) -0.159589(6)
O48A O 0.017412(11) -0.196371(7) -0.074975(6)
O49A O -0.165903(11) -0.249870(6) -0.050947(5)
O50A O -0.164114(10) -0.251981(6) -0.161862(5)
O51A O -0.205254(9) -0.375299(6) -0.118199(5)
O52A O -0.017738(9) -0.326573(7) -0.047642(5)
O53A O -0.023433(9) -0.330389(7) -0.156455(6)
O54A O 0.055162(10) -0.349610(8) -0.255879(6)
O55A O -0.147928(10) -0.335216(6) -0.261048(6)
O56A O -0.190431(9) -0.455794(6) -0.210735(5)
O57A O -0.120192(9) -0.464406(6) -0.301095(5)
O58A O 0.008278(9) -0.454607(7) -0.198295(5)
O59A O 0.031808(10) -0.572509(7) -0.159925(6)
O60A O -0.132351(9) -0.570168(6) -0.253460(5)
O61A O -0.176283(9) -0.569953(6) -0.155658(5)
O62A O -0.038434(10) -0.458760(7) -0.101095(6)
O63A O -0.002755(12) -0.415847(8) 0.022096(6)
O64A O -0.194411(10) -0.491918(6) -0.061381(5)
O65A O -0.178518(10) -0.360501(7) -0.006909(6)
O66A O -0.314334(11) -0.270164(8) 0.007616(6)
O67A O -0.373894(10) -0.403916(7) -0.066999(6)
O68A O -0.367452(10) -0.299499(6) -0.112778(6)
O69A O -0.383034(9) -0.263797(7) -0.213289(6)
O70A O -0.506425(10) -0.415817(7) -0.168612(6)
O71A O -0.560069(10) -0.288923(7) -0.183414(6)
O72A O -0.337201(8) -0.391608(6) -0.217169(5)
O73A O -0.521027(9) -0.384851(7) -0.268735(6)
O74A O -0.485239(9) -0.514738(6) -0.284898(5)
O75A O -0.524823(10) -0.459806(7) -0.383276(6)
O76A O -0.368086(10) -0.351658(7) -0.318288(5)
O77A O -0.329143(10) -0.480002(6) -0.325048(6)
O78A O -0.243953(12) -0.590612(8) -0.369301(6)
O79A O -0.338268(9) -0.583047(6) -0.280258(5)
O80A O -0.544794(11) -0.656324(7) -0.296131(6)
O81A O -0.336700(9) -0.487539(6) -0.170109(5)
O82A O -0.533459(10) -0.551347(7) -0.194333(6)
O83A O -0.380907(10) -0.622725(6) -0.190259(6)
O84A O -0.575338(10) -0.485208(7) -0.092657(6)
O85A O -0.398869(9) -0.542810(7) -0.094477(6)
O86A O -0.265926(11) -0.638310(7) -0.087291(6)
N1A N 0.066907(15) 0.085649(9) -0.017214(7)
H1A H 0.08910 0.12060 0.01620
H2A H 0.01730 0.09810 -0.04270
N2A N 0.103323(11) -0.045926(6) -0.032377(6)
H3A H 0.06970 -0.07840 -0.06650
H4A H 0.13730 -0.06710 -0.00710
N3A N -0.755170(17) -0.614110(11) -0.097240(9)
H5A H -0.79260 -0.61620 -0.07150
H6A H -0.68750 -0.61190 -0.07870
N4A N -0.769740(14) -0.58946(1) -0.201290(9)
H7A H -0.72270 -0.57000 -0.21690
H8A H -0.83420 -0.60000 -0.22720
N5A N -0.777530(15) -0.46436(1) -0.050820(8)
H9A H -0.72530 -0.46600 -0.02030
H10A H -0.83940 -0.47960 -0.04480
N6A N -0.766440(13) -0.438410(9) -0.152760(7)
H11A H -0.83090 -0.43950 -0.17540
H12A H -0.72070 -0.43510 -0.17400
N7A N -0.472619(13) -0.137068(9) -0.201039(5)
H13A H -0.46750 -0.10770 -0.22350
H14A H -0.42470 -0.16360 -0.20400
N8A N -0.633413(12) -0.143630(7) -0.156156(12)
H15A H -0.63440 -0.17090 -0.13170
H16A H -0.69570 -0.13070 -0.16390
N9A N -0.761498(12) -0.251392(9) -0.262143(9)
H17A H -0.80490 -0.22200 -0.26820
H18A H -0.77830 -0.27290 -0.23610
N10A N -0.595902(9) -0.250544(10) -0.305203(7)
H19A H -0.55570 -0.28140 -0.29790
H20A H -0.56210 -0.22050 -0.32030
N15A N -0.21941(2) -0.437917(16) -0.519611(13)
H29A H -0.17110 -0.40560 -0.52470
H30A H -0.25310 -0.46920 -0.55440
N16A N -0.229729(17) -0.406445(10) -0.409867(9)
H31A H -0.26080 -0.44430 -0.40170
H32A H -0.22060 -0.36870 -0.37970
N17A N -0.41141(2) -0.384743(14) -0.560485(9)
H33A H -0.44560 -0.42750 -0.58390
H34A H -0.37100 -0.36440 -0.57920
N18A N -0.435687(10) -0.365647(11) -0.453002(6)
H35A H -0.41480 -0.32090 -0.43090
H36A H -0.45020 -0.39270 -0.43000
C1A C 0.156549(19) 0.079317(5) -0.041548(16)
H45A H 0.13900 0.08430 -0.08110
H46A H 0.21760 0.11560 -0.01770
C2A C 0.179659(6) 0.008850(4) -0.041843(6)
H47A H 0.14570 -0.00770 -0.08420
C3A C 0.284952(8) 0.015485(17) -0.052165(8)
H48A H 0.30900 -0.02710 -0.05160
H49A H 0.28000 0.02430 -0.08960
H50A H 0.33390 0.05350 -0.02190
C4A C -0.793780(13) -0.676250(11) -0.145960(5)
H51A H -0.76810 -0.71620 -0.13670
H52A H -0.87000 -0.68780 -0.16070
C5A C -0.743390(13) -0.648380(6) -0.186600(4)
H53A H -0.66710 -0.63750 -0.16840
C6A C -0.76953(2) -0.714620(7) -0.234700(7)
H54A H -0.74040 -0.70650 -0.26530
H55A H -0.74040 -0.74990 -0.21950
H56A H -0.84460 -0.73010 -0.25010
C7A C -0.77001(2) -0.396360(15) -0.055010(11)
H57A H -0.83900 -0.38560 -0.05830
H58A H -0.72320 -0.36590 -0.01820
C8A C -0.73511(3) -0.377970(15) -0.100340(11)
H59A H -0.65870 -0.37300 -0.08630
C9A C -0.745520(19) -0.308000(11) -0.11245(1)
H60A H -0.72130 -0.27170 -0.07620
H61A H -0.70390 -0.29860 -0.13780
H62A H -0.81800 -0.30950 -0.13110
C10A C -0.448719(8) -0.095815(11) -0.139252(5)
H63A H -0.41710 -0.12190 -0.11330
H64A H -0.39910 -0.05230 -0.13220
C11A C -0.548076(7) -0.080673(7) -0.127164(4)
H65A H -0.56690 -0.04660 -0.14880
C12A C -0.538351(19) -0.044714(13) -0.064491(5)
H66A H -0.60530 -0.03550 -0.06140
H67A H -0.51630 -0.07430 -0.04010
H68A H -0.48730 -0.00140 -0.05190
C13A C -0.774734(9) -0.301728(16) -0.315469(5)
H69A H -0.77190 -0.34650 -0.30730
H70A H -0.84460 -0.30590 -0.34090
C14A C -0.697260(7) -0.288044(15) -0.348227(5)
H71A H -0.72090 -0.25190 -0.36600
C15A C -0.70612(3) -0.34232(2) -0.396144(16)
H72A H -0.65480 -0.32950 -0.41540
H73A H -0.69430 -0.38310 -0.38360
H74A H -0.77540 -0.35210 -0.42290
C22A C -0.12604(3) -0.41556(2) -0.419314(17)
H87A H -0.08680 -0.37370 -0.42390
H88A H -0.08310 -0.43090 -0.38840
C23A C -0.169666(8) -0.472799(16) -0.476215(7)
H89A H -0.21170 -0.51630 -0.47490
C24A C -0.077377(8) -0.478907(16) -0.500005(7)
H90A H -0.09910 -0.51520 -0.53620
H91A H -0.05120 -0.43530 -0.50670
H92A H -0.02290 -0.49010 -0.47220
C25A C -0.532234(11) -0.372977(14) -0.501388(7)
H93A H -0.56760 -0.42170 -0.51860
H94A H -0.58070 -0.34720 -0.48730
C26A C -0.490587(10) -0.341035(15) -0.548011(7)
H95A H -0.45550 -0.29170 -0.53040
C27A C -0.59310(1) -0.347703(14) -0.593067(8)
H96A H -0.57950 -0.33140 -0.62510
H97A H -0.62960 -0.39580 -0.60730
H98A H -0.63570 -0.32020 -0.57560
loop_
_geom_bond_atom_site_label_1
_geom_bond_atom_site_label_2
_geom_bond_site_symmetry_1
_geom_bond_site_symmetry_2
Dy1 O38 1_555 1_555
Dy1 O41 1_555 1_555
Dy1 O44 1_555 1_555
Dy1 O46 1_555 1_555
Dy1 O50 1_555 1_555
Dy1 O55 1_555 1_555
Dy1 O69 1_555 1_555
Dy1 O76 1_555 1_555
W1 O9 1_555 1_555
W1 O10 1_555 1_555
W1 O11 1_555 1_555
W1 O12 1_555 1_555
W1 O13 1_555 1_555
W1 O14 1_555 1_555
W2 O11 1_555 1_555
W2 O14 1_555 1_555
W2 O15 1_555 1_555
W2 O16 1_555 1_555
W2 O17 1_555 1_555
W2 O18 1_555 1_555
W3 O10 1_555 1_555
W3 O11 1_555 1_555
W3 O18 1_555 1_555
W3 O19 1_555 1_555
W3 O20 1_555 1_555
W3 O21 1_555 1_555
W4 O21 1_555 1_555
W4 O22 1_555 1_555
W4 O23 1_555 1_555
W4 O24 1_555 1_555
W4 O25 1_555 1_555
W4 O26 1_555 1_555
W5 O12 1_555 1_555
W5 O23 1_555 1_555
W5 O26 1_555 1_555
W5 O27 1_555 1_555
W5 O28 1_555 1_555
W5 O29 1_555 1_555
W6 O13 1_555 1_555
W6 O29 1_555 1_555
W6 O30 1_555 1_555
W6 O32 1_555 1_555
W6 O33 1_555 1_555
W7 O16 1_555 1_555
W7 O31 1_555 1_555
W7 O33 1_555 1_555
W7 O34 1_555 1_555
W7 O35 1_555 1_555
W7 O36 1_555 1_555
W8 O17 1_555 1_555
W8 O36 1_555 1_555
W8 O37 1_555 1_555
W8 O38 1_555 1_555
W8 O39 1_555 1_555
W8 O40 1_555 1_555
W9 O20 1_555 1_555
W9 O25 1_555 1_555
W9 O39 1_555 1_555
W9 O40 1_555 1_555
W9 O41 1_555 1_555
W9 O42 1_555 1_555
W10 O23 1_555 1_555
W10 O24 1_555 1_555
W10 O28 1_555 1_555
W10 O43 1_555 1_555
W10 O44 1_555 1_555
W10 O45 1_555 1_555
W11 O31 1_555 1_555
W11 O32 1_555 1_555
W11 O35 1_555 1_555
W11 O45 1_555 1_555
W11 O46 1_555 1_555
W11 O47 1_555 1_555
W12 O48 1_555 1_555
W12 O49 1_555 1_555
W12 O50 1_555 1_555
W12 O51 1_555 1_555
W12 O52 1_555 1_555
W12 O53 1_555 1_555
W13 O53 1_555 1_555
W13 O54 1_555 1_555
W13 O55 1_555 1_555
W13 O56 1_555 1_555
W13 O57 1_555 1_555
W13 O58 1_555 1_555
W14 O56 1_555 1_555
W14 O58 1_555 1_555
W14 O59 1_555 1_555
W14 O60 1_555 1_555
W14 O61 1_555 1_555
W14 O62 1_555 1_555
W15 O51 1_555 1_555
W15 O52 1_555 1_555
W15 O62 1_555 1_555
W15 O63 1_555 1_555
W15 O64 1_555 1_555
W15 O65 1_555 1_555
W16 O49 1_555 1_555
W16 O51 1_555 1_555
W16 O65 1_555 1_555
W16 O66 1_555 1_555
W16 O67 1_555 1_555
W16 O68 1_555 1_555
W17 O68 1_555 1_555
W17 O69 1_555 1_555
W17 O70 1_555 1_555
W17 O71 1_555 1_555
W17 O72 1_555 1_555
W17 O73 1_555 1_555
W18 O72 1_555 1_555
W18 O73 1_555 1_555
W18 O74 1_555 1_555
W18 O75 1_555 1_555
W18 O76 1_555 1_555
W18 O77 1_555 1_555
W19 O56 1_555 1_555
W19 O57 1_555 1_555
W19 O60 1_555 1_555
W19 O77 1_555 1_555
W19 O78 1_555 1_555
W19 O79 1_555 1_555
W20 O74 1_555 1_555
W20 O79 1_555 1_555
W20 O80 1_555 1_555
W20 O81 1_555 1_555
W20 O82 1_555 1_555
W20 O83 1_555 1_555
W21 O67 1_555 1_555
W21 O70 1_555 1_555
W21 O81 1_555 1_555
W21 O82 1_555 1_555
W21 O84 1_555 1_555
W21 O85 1_555 1_555
W22 O61 1_555 1_555
W22 O64 1_555 1_555
W22 O81 1_555 1_555
W22 O83 1_555 1_555
W22 O85 1_555 1_555
W22 O86 1_555 1_555
P1 O11 1_555 1_555
P1 O23 1_555 1_555
P1 O31 1_555 1_555
P1 O40 1_555 1_555
P2 O51 1_555 1_555
P2 O56 1_555 1_555
P2 O72 1_555 1_555
P2 O81 1_555 1_555
Cu1 O43 1_555 1_555
Cu1 N1 1_555 1_555
Cu1 N2 1_555 1_555
Cu1 O43A 1_555 1_555
Cu1 N1A 1_555 1_555
Cu1 N2A 1_555 1_555
Cu2 O84 1_555 1_555
Cu2 N3 1_555 1_555
Cu2 N4 1_555 1_555
Cu2 N5 1_555 1_555
Cu2 N6 1_555 1_555
Cu3 O71 1_555 1_555
Cu3 N7 1_555 1_555
Cu3 N8 1_555 1_555
Cu3 N9 1_555 1_555
Cu3 N10 1_555 1_555
Cu4 O86 1_555 1_555
Cu4 N11 1_555 1_555
Cu4 N12 1_555 1_555
Cu4 N13 1_555 1_555
Cu4 N14 1_555 1_555
Cu5 O37 1_555 1_555
Cu5 N15 1_555 1_555
Cu5 N16 1_555 1_555
Cu5 N17 1_555 1_555
Cu5 N18 1_555 1_555
N1 H1 1_555 1_555
N1 H2 1_555 1_555
N1 C1 1_555 1_555
N2 H3 1_555 1_555
N2 H4 1_555 1_555
N2 C2 1_555 1_555
N3 H5 1_555 1_555
N3 H6 1_555 1_555
N3 C4 1_555 1_555
N4 H7 1_555 1_555
N4 H8 1_555 1_555
N4 C5 1_555 1_555
N5 H9 1_555 1_555
N5 H10 1_555 1_555
N5 C7 1_555 1_555
N6 H11 1_555 1_555
N6 H12 1_555 1_555
N6 C8 1_555 1_555
N7 H13 1_555 1_555
N7 H14 1_555 1_555
N7 C10 1_555 1_555
N8 H15 1_555 1_555
N8 H16 1_555 1_555
N8 C11 1_555 1_555
N9 H17 1_555 1_555
N9 H18 1_555 1_555
N9 C13 1_555 1_555
N10 H19 1_555 1_555
N10 H20 1_555 1_555
N10 C14 1_555 1_555
N11 H21 1_555 1_555
N11 H22 1_555 1_555
N11 C16 1_555 1_555
N12 H23 1_555 1_555
N12 H24 1_555 1_555
N12 C17 1_555 1_555
N13 H25 1_555 1_555
N13 H26 1_555 1_555
N13 C19 1_555 1_555
N14 H27 1_555 1_555
N14 H28 1_555 1_555
N14 C20 1_555 1_555
N15 H29 1_555 1_555
N15 H30 1_555 1_555
N15 C23 1_555 1_555
N16 H31 1_555 1_555
N16 H32 1_555 1_555
N16 C22 1_555 1_555
N17 H33 1_555 1_555
N17 H34 1_555 1_555
N17 C26 1_555 1_555
N18 H35 1_555 1_555
N18 H36 1_555 1_555
N18 C25 1_555 1_555
C1 H45 1_555 1_555
C1 H46 1_555 1_555
C1 C2 1_555 1_555
C2 H47 1_555 1_555
C2 C3 1_555 1_555
C3 H48 1_555 1_555
C3 H49 1_555 1_555
C3 H50 1_555 1_555
C4 H51 1_555 1_555
C4 H52 1_555 1_555
C4 C5 1_555 1_555
C5 H53 1_555 1_555
C5 C6 1_555 1_555
C6 H54 1_555 1_555
C6 H55 1_555 1_555
C6 H56 1_555 1_555
C7 H57 1_555 1_555
C7 H58 1_555 1_555
C7 C8 1_555 1_555
C8 H59 1_555 1_555
C8 C9 1_555 1_555
C9 H60 1_555 1_555
C9 H61 1_555 1_555
C9 H62 1_555 1_555
C10 H63 1_555 1_555
C10 H64 1_555 1_555
C10 C11 1_555 1_555
C11 H65 1_555 1_555
C11 C12 1_555 1_555
C12 H66 1_555 1_555
C12 H67 1_555 1_555
C12 H68 1_555 1_555
C13 H69 1_555 1_555
C13 H70 1_555 1_555
C13 C14 1_555 1_555
C14 H71 1_555 1_555
C14 C15 1_555 1_555
C15 H72 1_555 1_555
C15 H73 1_555 1_555
C15 H74 1_555 1_555
C16 H75 1_555 1_555
C16 H76 1_555 1_555
C16 C17 1_555 1_555
C17 H77 1_555 1_555
C17 C18 1_555 1_555
C18 H78 1_555 1_555
C18 H79 1_555 1_555
C18 H80 1_555 1_555
C19 H81 1_555 1_555
C19 H82 1_555 1_555
C19 C20 1_555 1_555
C20 H83 1_555 1_555
C20 C21 1_555 1_555
C21 H84 1_555 1_555
C21 H85 1_555 1_555
C21 H86 1_555 1_555
C22 H87 1_555 1_555
C22 H88 1_555 1_555
C22 C23 1_555 1_555
C23 H89 1_555 1_555
C23 C24 1_555 1_555
C24 H90 1_555 1_555
C24 H91 1_555 1_555
C24 H92 1_555 1_555
C25 H93 1_555 1_555
C25 H94 1_555 1_555
C25 C26 1_555 1_555
C26 H95 1_555 1_555
C26 C27 1_555 1_555
C27 H96 1_555 1_555
C27 H97 1_555 1_555
C27 H98 1_555 1_555
Dy1A O38A 1_555 1_555
Dy1A O41A 1_555 1_555
Dy1A O44A 1_555 1_555
Dy1A O46A 1_555 1_555
Dy1A O50A 1_555 1_555
Dy1A O55A 1_555 1_555
Dy1A O69A 1_555 1_555
Dy1A O76A 1_555 1_555
W1A O9A 1_555 1_555
W1A O10A 1_555 1_555
W1A O11A 1_555 1_555
W1A O12A 1_555 1_555
W1A O13A 1_555 1_555
W1A O14A 1_555 1_555
W2A O11A 1_555 1_555
W2A O14A 1_555 1_555
W2A O15A 1_555 1_555
W2A O16A 1_555 1_555
W2A O17A 1_555 1_555
W2A O18A 1_555 1_555
W3A O10A 1_555 1_555
W3A O11A 1_555 1_555
W3A O18A 1_555 1_555
W3A O19A 1_555 1_555
W3A O20A 1_555 1_555
W3A O21A 1_555 1_555
W4A O21A 1_555 1_555
W4A O22A 1_555 1_555
W4A O23A 1_555 1_555
W4A O24A 1_555 1_555
W4A O25A 1_555 1_555
W4A O26A 1_555 1_555
W5A O12A 1_555 1_555
W5A O23A 1_555 1_555
W5A O26A 1_555 1_555
W5A O27A 1_555 1_555
W5A O28A 1_555 1_555
W5A O29A 1_555 1_555
W6A O13A 1_555 1_555
W6A O29A 1_555 1_555
W6A O30A 1_555 1_555
W6A O32A 1_555 1_555
W6A O33A 1_555 1_555
W7A O16A 1_555 1_555
W7A O31A 1_555 1_555
W7A O33A 1_555 1_555
W7A O34A 1_555 1_555
W7A O35A 1_555 1_555
W7A O36A 1_555 1_555
W8A O17A 1_555 1_555
W8A O36A 1_555 1_555
W8A O37A 1_555 1_555
W8A O38A 1_555 1_555
W8A O39A 1_555 1_555
W8A O40A 1_555 1_555
W9A O20A 1_555 1_555
W9A O25A 1_555 1_555
W9A O39A 1_555 1_555
W9A O40A 1_555 1_555
W9A O41A 1_555 1_555
W9A O42A 1_555 1_555
W10A O23A 1_555 1_555
W10A O24A 1_555 1_555
W10A O28A 1_555 1_555
W10A O43A 1_555 1_555
W10A O44A 1_555 1_555
W10A O45A 1_555 1_555
W11A O31A 1_555 1_555
W11A O32A 1_555 1_555
W11A O35A 1_555 1_555
W11A O45A 1_555 1_555
W11A O46A 1_555 1_555
W11A O47A 1_555 1_555
W12A O48A 1_555 1_555
W12A O49A 1_555 1_555
W12A O50A 1_555 1_555
W12A O51A 1_555 1_555
W12A O52A 1_555 1_555
W12A O53A 1_555 1_555
W13A O53A 1_555 1_555
W13A O54A 1_555 1_555
W13A O55A 1_555 1_555
W13A O56A 1_555 1_555
W13A O57A 1_555 1_555
W13A O58A 1_555 1_555
W14A O56A 1_555 1_555
W14A O58A 1_555 1_555
W14A O59A 1_555 1_555
W14A O60A 1_555 1_555
W14A O61A 1_555 1_555
W14A O62A 1_555 1_555
W15A O51A 1_555 1_555
W15A O52A 1_555 1_555
W15A O62A 1_555 1_555
W15A O63A 1_555 1_555
W15A O64A 1_555 1_555
W15A O65A 1_555 1_555
W16A O49A 1_555 1_555
W16A O51A 1_555 1_555
W16A O65A 1_555 1_555
W16A O66A 1_555 1_555
W16A O67A 1_555 1_555
W16A O68A 1_555 1_555
W17A O68A 1_555 1_555
W17A O69A 1_555 1_555
W17A O70A 1_555 1_555
W17A O71A 1_555 1_555
W17A O72A 1_555 1_555
W17A O73A 1_555 1_555
W18A O72A 1_555 1_555
W18A O73A 1_555 1_555
W18A O74A 1_555 1_555
W18A O75A 1_555 1_555
W18A O76A 1_555 1_555
W18A O77A 1_555 1_555
W19A O56A 1_555 1_555
W19A O57A 1_555 1_555
W19A O60A 1_555 1_555
W19A O77A 1_555 1_555
W19A O78A 1_555 1_555
W19A O79A 1_555 1_555
W20A O74A 1_555 1_555
W20A O79A 1_555 1_555
W20A O80A 1_555 1_555
W20A O81A 1_555 1_555
W20A O82A 1_555 1_555
W20A O83A 1_555 1_555
W21A O67A 1_555 1_555
W21A O70A 1_555 1_555
W21A O81A 1_555 1_555
W21A O82A 1_555 1_555
W21A O84A 1_555 1_555
W21A O85A 1_555 1_555
W22A O61A 1_555 1_555
W22A O64A 1_555 1_555
W22A O81A 1_555 1_555
W22A O83A 1_555 1_555
W22A O85A 1_555 1_555
W22A O86A 1_555 1_555
P1A O11A 1_555 1_555
P1A O23A 1_555 1_555
P1A O31A 1_555 1_555
P1A O40A 1_555 1_555
P2A O51A 1_555 1_555
P2A O56A 1_555 1_555
P2A O72A 1_555 1_555
P2A O81A 1_555 1_555
Cu2A O84A 1_555 1_555
Cu2A N3A 1_555 1_555
Cu2A N4A 1_555 1_555
Cu2A N5A 1_555 1_555
Cu2A N6A 1_555 1_555
Cu3A O71A 1_555 1_555
Cu3A N7A 1_555 1_555
Cu3A N8A 1_555 1_555
Cu3A N9A 1_555 1_555
Cu3A N10A 1_555 1_555
Cu5A O37A 1_555 1_555
Cu5A N15A 1_555 1_555
Cu5A N16A 1_555 1_555
Cu5A N17A 1_555 1_555
Cu5A N18A 1_555 1_555
N1A H1A 1_555 1_555
N1A H2A 1_555 1_555
N1A C1A 1_555 1_555
N2A H3A 1_555 1_555
N2A H4A 1_555 1_555
N2A C2A 1_555 1_555
N3A H5A 1_555 1_555
N3A H6A 1_555 1_555
N3A C4A 1_555 1_555
N4A H7A 1_555 1_555
N4A H8A 1_555 1_555
N4A C5A 1_555 1_555
N5A H9A 1_555 1_555
N5A H10A 1_555 1_555
N5A C7A 1_555 1_555
N6A H11A 1_555 1_555
N6A H12A 1_555 1_555
N6A C8A 1_555 1_555
N7A H13A 1_555 1_555
N7A H14A 1_555 1_555
N7A C10A 1_555 1_555
N8A H15A 1_555 1_555
N8A H16A 1_555 1_555
N8A C11A 1_555 1_555
N9A H17A 1_555 1_555
N9A H18A 1_555 1_555
N9A C13A 1_555 1_555
N10A H19A 1_555 1_555
N10A H20A 1_555 1_555
N10A C14A 1_555 1_555
N15A H29A 1_555 1_555
N15A H30A 1_555 1_555
N15A C23A 1_555 1_555
N16A H31A 1_555 1_555
N16A H32A 1_555 1_555
N16A C22A 1_555 1_555
N17A H33A 1_555 1_555
N17A H34A 1_555 1_555
N17A C26A 1_555 1_555
N18A H35A 1_555 1_555
N18A H36A 1_555 1_555
N18A C25A 1_555 1_555
C1A H45A 1_555 1_555
C1A H46A 1_555 1_555
C1A C2A 1_555 1_555
C2A H47A 1_555 1_555
C2A C3A 1_555 1_555
C3A H48A 1_555 1_555
C3A H49A 1_555 1_555
C3A H50A 1_555 1_555
C4A H51A 1_555 1_555
C4A H52A 1_555 1_555
C4A C5A 1_555 1_555
C5A H53A 1_555 1_555
C5A C6A 1_555 1_555
C6A H54A 1_555 1_555
C6A H55A 1_555 1_555
C6A H56A 1_555 1_555
C7A H57A 1_555 1_555
C7A H58A 1_555 1_555
C7A C8A 1_555 1_555
C8A H59A 1_555 1_555
C8A C9A 1_555 1_555
C9A H60A 1_555 1_555
C9A H61A 1_555 1_555
C9A H62A 1_555 1_555
C10A H63A 1_555 1_555
C10A H64A 1_555 1_555
C10A C11A 1_555 1_555
C11A H65A 1_555 1_555
C11A C12A 1_555 1_555
C12A H66A 1_555 1_555
C12A H67A 1_555 1_555
C12A H68A 1_555 1_555
C13A H69A 1_555 1_555
C13A H70A 1_555 1_555
C13A C14A 1_555 1_555
C14A H71A 1_555 1_555
C14A C15A 1_555 1_555
C15A H72A 1_555 1_555
C15A H73A 1_555 1_555
C15A H74A 1_555 1_555
C22A H87A 1_555 1_555
C22A H88A 1_555 1_555
C22A C23A 1_555 1_555
C23A H89A 1_555 1_555
C23A C24A 1_555 1_555
C24A H90A 1_555 1_555
C24A H91A 1_555 1_555
C24A H92A 1_555 1_555
C25A H93A 1_555 1_555
C25A H94A 1_555 1_555
C25A C26A 1_555 1_555
C26A H95A 1_555 1_555
C26A C27A 1_555 1_555
C27A H96A 1_555 1_555
C27A H97A 1_555 1_555
C27A H98A 1_555 1_555

#END
