
#######################################################################
#
#                 Cambridge Crystallographic Data Centre
#                                CCDC 
#
#######################################################################
#
# If this CIF has been generated from an entry in the Cambridge 
# Structural Database, then it will include bibliographic, chemical, 
# crystal, experimental, refinement or atomic coordinate data resulting 
# from the CCDC's data processing and validation procedures.
#
#######################################################################

data_POVSUP
_chemical_formula_moiety         
'C156 H108 Co8 N72 4+,H12 Co1 O6 2+,6(C9 H5 O6 1-),6(C2 H6 O1),3(H2 O1)'
_chemical_name_systematic        
"dodecakis(\m~2~-2-Imino-4,6-bis(pyridin-2-yl)-2H-1,3,5-triazin-5-ide-N,N',N'',N''')-octa-cobalt(ii) hexa-aqua-cobalt(ii) clathrate hexakis(3,5-dicarboxybenzoate) ethanol solvate trihydrate"
_symmetry_cell_setting           rhombohedral
_symmetry_space_group_name_H-M   'R -3'
_symmetry_Int_Tables_number      148
_space_group_name_Hall           '-R 3'
loop_
_symmetry_equiv_pos_site_id
_symmetry_equiv_pos_as_xyz
1 x,y,z
2 -y,x-y,z
3 -x+y,-x,z
4 2/3+x,1/3+y,1/3+z
5 2/3-y,1/3+x-y,1/3+z
6 2/3-x+y,1/3-x,1/3+z
7 1/3+x,2/3+y,2/3+z
8 1/3-y,2/3+x-y,2/3+z
9 1/3-x+y,2/3-x,2/3+z
10 -x,-y,-z
11 y,-x+y,-z
12 x-y,x,-z
13 1/3-x,2/3-y,2/3-z
14 1/3+y,2/3-x+y,2/3-z
15 1/3+x-y,2/3+x,2/3-z
16 2/3-x,1/3-y,1/3-z
17 2/3+y,1/3-x+y,1/3-z
18 2/3+x-y,1/3+x,1/3-z
_cell_length_a                   32.8260(12)
_cell_length_b                   32.8260(12)
_cell_length_c                   18.6690(14)
_cell_angle_alpha                90
_cell_angle_beta                 90
_cell_angle_gamma                120
_cell_volume                     17421.6
_exptl_crystal_colour            red
_exptl_crystal_description       block
_cell_formula_units_Z            3
loop_
_atom_site_label
_atom_site_type_symbol
_atom_site_fract_x
_atom_site_fract_y
_atom_site_fract_z
Co1 Co -0.00000 1.00000 -0.30098(6)
Co2 Co 0.12598(2) 0.95307(2) -0.10231(3)
C1 C 0.04909(17) 1.08105(17) -0.4159(3)
H1 H 0.01880 1.07070 -0.43280
C2 C 0.08617(19) 1.11982(18) -0.4478(3)
H2 H 0.08080 1.13550 -0.48480
C3 C 0.13085(18) 1.13482(19) -0.4238(3)
H3 H 0.15630 1.16050 -0.44520
C4 C 0.13752(16) 1.11148(17) -0.3681(3)
H4 H 0.16770 1.12150 -0.35090
C5 C 0.09904(15) 1.07341(15) -0.3377(2)
C6 C 0.10284(15) 1.04568(15) -0.2776(2)
C7 C 0.06668(15) 0.98073(16) -0.2032(2)
C8 C 0.14729(15) 1.03117(16) -0.2033(3)
C9 C 0.19467(16) 1.04089(18) -0.1796(3)
C10 C 0.23469(19) 1.0823(2) -0.1961(3)
H5 H 0.23290 1.10570 -0.22170
C11 C 0.2779(2) 1.0888(3) -0.1740(4)
H6 H 0.30570 1.11650 -0.18390
C12 C 0.2784(2) 1.0528(3) -0.1368(4)
H7 H 0.30670 1.05590 -0.12160
C13 C 0.2371(2) 1.0127(2) -0.1223(3)
H8 H 0.23800 0.98870 -0.09710
C14 C 0.1291(2) 0.9135(2) -0.2544(3)
H9 H 0.15840 0.94050 -0.25850
C15 C 0.1109(3) 0.8835(3) -0.3127(3)
H10 H 0.12820 0.89030 -0.35490
C16 C 0.0680(3) 0.8444(3) -0.3082(3)
H11 H 0.05550 0.82410 -0.34710
C17 C 0.0430(2) 0.8349(2) -0.2443(3)
H12 H 0.01360 0.80810 -0.23950
C18 C 0.06280(19) 0.86619(18) -0.1882(3)
C19 C 0.03887(18) 0.85929(17) -0.1191(3)
C20 C 0.03880(17) 0.88640(16) -0.0034(3)
C21 C -0.02020(18) 0.81379(17) -0.0449(3)
C22 C -0.0633(2) 0.76860(18) -0.0280(3)
C23 C -0.0822(3) 0.7320(2) -0.0761(4)
H13 H -0.06910 0.73510 -0.12130
C24 C -0.1217(3) 0.6900(2) -0.0546(4)
H14 H -0.13520 0.66450 -0.08580
C25 C -0.1402(3) 0.6862(2) 0.0099(4)
H15 H -0.16680 0.65850 0.02400
C26 C -0.1191(2) 0.7242(2) 0.0558(4)
H16 H -0.13210 0.72140 0.10100
N1 N 0.05512(13) 1.05750(13) -0.3621(2)
N2 N 0.06333(12) 1.00947(12) -0.25444(19)
N3 N 0.14620(12) 1.05910(13) -0.2545(2)
N4 N 0.11081(12) 0.99367(13) -0.1760(2)
N5 N 0.19508(14) 1.00634(15) -0.1429(2)
N6 N 0.10582(16) 0.90498(16) -0.1929(2)
N7 N 0.05918(14) 0.89367(13) -0.0710(2)
N8 N -0.00082(16) 0.81823(15) -0.1088(2)
N9 N 0.14999(13) 0.99559(13) -0.0075(2)
N10 N 0.15442(15) 0.91925(14) -0.0384(2)
N11 N 0.03196(11) 0.94429(11) -0.18368(18)
H22 H 0.00350 0.93640 -0.20170
N12 N 0.05816(12) 0.91408(11) 0.04535(18)
H23 H 0.08600 0.94030 0.03760
Co1I Co -0.00000 1.00000 0.30098(6)
Co2B Co -0.17291(2) 0.87402(2) -0.10231(3)
Co2J Co -0.04693(2) 0.82709(2) 0.10231(3)
Co2K Co 0.17291(2) 1.12598(2) 0.10231(3)
Co2A Co 0.04693(2) 1.17291(2) -0.10231(3)
Co2I Co -0.12598(2) 1.04693(2) 0.10231(3)
C1A C -0.08105(17) 0.96804(17) -0.4159(3)
C1B C 0.03196(17) 0.95091(17) -0.4159(3)
C1J C 0.08105(17) 1.03196(17) 0.4159(3)
C1K C -0.03196(17) 1.04909(17) 0.4159(3)
C1I C -0.04909(17) 0.91895(17) 0.4159(3)
H1A H -0.07070 0.94810 -0.43280
H1B H 0.05190 0.98120 -0.43280
H1J H 0.07070 1.05190 0.43280
H1K H -0.05190 1.01880 0.43280
H1I H -0.01880 0.92930 0.43280
C2A C -0.11982(19) 0.96635(18) -0.4478(3)
C2B C 0.03365(19) 0.91383(18) -0.4478(3)
C2J C 0.11982(19) 1.03365(18) 0.4478(3)
C2K C -0.03365(19) 1.08617(18) 0.4478(3)
C2I C -0.08617(19) 0.88018(18) 0.4478(3)
H2A H -0.13550 0.94530 -0.48480
H2B H 0.05470 0.91920 -0.48480
H2J H 0.13550 1.05470 0.48480
H2K H -0.05470 1.08080 0.48480
H2I H -0.08080 0.86450 0.48480
C3A C -0.13482(18) 0.99603(19) -0.4238(3)
C3B C 0.00397(18) 0.86915(19) -0.4238(3)
C3J C 0.13482(18) 1.00397(19) 0.4238(3)
C3K C -0.00397(18) 1.13085(19) 0.4238(3)
C3I C -0.13085(18) 0.86518(19) 0.4238(3)
H3A H -0.16050 0.99580 -0.44520
H3B H 0.00420 0.84370 -0.44520
H3J H 0.16050 1.00420 0.44520
H3K H -0.00420 1.15630 0.44520
H3I H -0.15630 0.83950 0.44520
C4A C -0.11148(16) 1.02604(17) -0.3681(3)
C4B C -0.02604(16) 0.86248(17) -0.3681(3)
C4J C 0.11148(16) 0.97396(17) 0.3681(3)
C4K C 0.02604(16) 1.13752(17) 0.3681(3)
C4I C -0.13752(16) 0.88852(17) 0.3681(3)
H4A H -0.12150 1.04620 -0.35090
H4B H -0.04620 0.83230 -0.35090
H4J H 0.12150 0.95380 0.35090
H4K H 0.04620 1.16770 0.35090
H4I H -0.16770 0.87850 0.35090
C5A C -0.07341(15) 1.02563(15) -0.3377(2)
C5B C -0.02563(15) 0.90096(15) -0.3377(2)
C5J C 0.07341(15) 0.97437(15) 0.3377(2)
C5K C 0.02563(15) 1.09904(15) 0.3377(2)
C5I C -0.09904(15) 0.92659(15) 0.3377(2)
C6A C -0.04568(15) 1.05716(15) -0.2776(2)
C6B C -0.05716(15) 0.89716(15) -0.2776(2)
C6J C 0.04568(15) 0.94284(15) 0.2776(2)
C6K C 0.05716(15) 1.10284(15) 0.2776(2)
C6I C -0.10284(15) 0.95432(15) 0.2776(2)
C7B C -0.08595(15) 0.93332(16) -0.2032(2)
C7J C -0.01927(15) 0.91405(16) 0.2032(2)
C7K C 0.08595(15) 1.06668(16) 0.2032(2)
C7A C 0.01927(15) 1.08595(16) -0.2032(2)
C7I C -0.06668(15) 1.01927(16) 0.2032(2)
C8B C -0.11612(15) 0.85271(16) -0.2033(3)
C8J C 0.03117(15) 0.88388(16) 0.2033(3)
C8K C 0.11612(15) 1.14729(16) 0.2033(3)
C8A C -0.03117(15) 1.11612(16) -0.2033(3)
C8I C -0.14729(15) 0.96883(16) 0.2033(3)
C9B C -0.15378(16) 0.80533(18) -0.1796(3)
C9J C 0.04089(16) 0.84622(18) 0.1796(3)
C9K C 0.15378(16) 1.19467(18) 0.1796(3)
C9A C -0.04089(16) 1.15378(18) -0.1796(3)
C9I C -0.19467(16) 0.95911(18) 0.1796(3)
C10B C -0.15239(19) 0.76531(20) -0.1961(3)
C10J C 0.08230(19) 0.84761(20) 0.1961(3)
C10K C 0.15239(19) 1.23469(20) 0.1961(3)
C10A C -0.08230(19) 1.15239(20) -0.1961(3)
C10I C -0.23469(19) 0.9177(2) 0.1961(3)
H5B H -0.12720 0.76710 -0.22170
H5J H 0.10570 0.87280 0.22170
H5K H 0.12720 1.23290 0.22170
H5A H -0.10570 1.12720 -0.22170
H5I H -0.23290 0.89430 0.22170
C11B C -0.1891(2) 0.7221(3) -0.1740(4)
C11J C 0.0888(2) 0.8109(3) 0.1740(4)
C11K C 0.1891(2) 1.2779(3) 0.1740(4)
C11A C -0.0888(2) 1.1891(3) -0.1740(4)
C11I C -0.2779(2) 0.9112(3) 0.1740(4)
H6B H -0.18920 0.69430 -0.18390
H6J H 0.11650 0.81080 0.18390
H6K H 0.18920 1.30570 0.18390
H6A H -0.11650 1.18920 -0.18390
H6I H -0.30570 0.88350 0.18390
C12B C -0.2256(2) 0.7216(3) -0.1368(4)
C12J C 0.0528(2) 0.7744(3) 0.1368(4)
C12K C 0.2256(2) 1.2784(3) 0.1368(4)
C12A C -0.0528(2) 1.2256(3) -0.1368(4)
C12I C -0.2784(2) 0.9472(3) 0.1368(4)
H7B H -0.25080 0.69330 -0.12160
H7J H 0.05590 0.74920 0.12160
H7K H 0.25080 1.30670 0.12160
H7A H -0.05590 1.25080 -0.12160
H7I H -0.30670 0.94410 0.12160
C13B C -0.2244(2) 0.7629(2) -0.1223(3)
C13J C 0.0127(2) 0.7756(2) 0.1223(3)
C13K C 0.2244(2) 1.2371(2) 0.1223(3)
C13A C -0.0127(2) 1.2244(2) -0.1223(3)
C13I C -0.2371(2) 0.9873(2) 0.1223(3)
H8B H -0.24930 0.76200 -0.09710
H8J H -0.01130 0.75070 0.09710
H8K H 0.24930 1.23800 0.09710
H8A H 0.01130 1.24930 -0.09710
H8I H -0.23800 1.01130 0.09710
C14B C -0.2156(2) 0.8709(2) -0.2544(3)
C14J C -0.0865(2) 0.7844(2) 0.2544(3)
C14K C 0.2156(2) 1.1291(2) 0.2544(3)
C14A C 0.0865(2) 1.2156(2) -0.2544(3)
C14I C -0.1291(2) 1.0865(2) 0.2544(3)
H9B H -0.21790 0.84160 -0.25850
H9J H -0.05950 0.78210 0.25850
H9K H 0.21790 1.15840 0.25850
H9A H 0.05950 1.21790 -0.25850
H9I H -0.15840 1.05950 0.25850
C15B C -0.2274(3) 0.8891(3) -0.3127(3)
C15J C -0.1165(3) 0.7726(3) 0.3127(3)
C15K C 0.2274(3) 1.1109(3) 0.3127(3)
C15A C 0.1165(3) 1.2274(3) -0.3127(3)
C15I C -0.1109(3) 1.1165(3) 0.3127(3)
H10B H -0.23790 0.87180 -0.35490
H10J H -0.10970 0.76210 0.35490
H10K H 0.23790 1.12820 0.35490
H10A H 0.10970 1.23790 -0.35490
H10I H -0.12820 1.10970 0.35490
C16B C -0.2236(3) 0.9320(3) -0.3082(3)
C16J C -0.1556(3) 0.7764(3) 0.3082(3)
C16K C 0.2236(3) 1.0680(3) 0.3082(3)
C16A C 0.1556(3) 1.2236(3) -0.3082(3)
C16I C -0.0680(3) 1.1556(3) 0.3082(3)
H11B H -0.23140 0.94450 -0.34710
H11J H -0.17590 0.76860 0.34710
H11K H 0.23140 1.05550 0.34710
H11A H 0.17590 1.23140 -0.34710
H11I H -0.05550 1.17590 0.34710
C17B C -0.2081(2) 0.9570(2) -0.2443(3)
C17J C -0.1651(2) 0.7919(2) 0.2443(3)
C17K C 0.2081(2) 1.0430(2) 0.2443(3)
C17A C 0.1651(2) 1.2081(2) -0.2443(3)
C17I C -0.0430(2) 1.1651(2) 0.2443(3)
H12B H -0.20550 0.98640 -0.23950
H12J H -0.19190 0.79450 0.23950
H12K H 0.20550 1.01360 0.23950
H12A H 0.19190 1.20550 -0.23950
H12I H -0.01360 1.19190 0.23950
C18B C -0.19661(19) 0.93720(18) -0.1882(3)
C18J C -0.13381(19) 0.80339(18) 0.1882(3)
C18K C 0.19661(19) 1.06280(18) 0.1882(3)
C18A C 0.13381(19) 1.19661(18) -0.1882(3)
C18I C -0.06280(19) 1.13381(18) 0.1882(3)
C19B C -0.17958(18) 0.96113(17) -0.1191(3)
C19J C -0.14071(18) 0.82042(17) 0.1191(3)
C19K C 0.17958(18) 1.03887(17) 0.1191(3)
C19A C 0.14071(18) 1.17958(17) -0.1191(3)
C19I C -0.03887(18) 1.14071(17) 0.1191(3)
C20J C -0.11360(17) 0.84760(16) 0.0034(3)
C20K C 0.15240(17) 1.03880(16) 0.0034(3)
C20A C 0.11360(17) 1.15240(16) -0.0034(3)
C20I C -0.03880(17) 1.11360(16) 0.0034(3)
C20B C -0.15240(17) 0.96120(16) -0.0034(3)
C21J C -0.18621(18) 0.83399(17) 0.0449(3)
C21K C 0.16601(18) 0.97980(17) 0.0449(3)
C21A C 0.18621(18) 1.16601(17) -0.0449(3)
C21I C 0.02020(18) 1.18621(17) 0.0449(3)
C21B C -0.16601(18) 1.02020(17) -0.0449(3)
C22J C -0.2314(2) 0.83190(18) 0.0280(3)
C22K C 0.1681(2) 0.93670(18) 0.0280(3)
C22A C 0.2314(2) 1.16810(18) -0.0280(3)
C22I C 0.0633(2) 1.23140(18) 0.0280(3)
C22B C -0.1681(2) 1.06330(18) -0.0280(3)
C23J C -0.2680(3) 0.8142(2) 0.0761(4)
C23K C 0.1858(3) 0.9178(2) 0.0761(4)
C23A C 0.2680(3) 1.1858(2) -0.0761(4)
C23I C 0.0822(3) 1.2680(2) 0.0761(4)
C23B C -0.1858(3) 1.0822(2) -0.0761(4)
H13J H -0.26490 0.80420 0.12130
H13K H 0.19580 0.93090 0.12130
H13A H 0.26490 1.19580 -0.12130
H13I H 0.06910 1.26490 0.12130
H13B H -0.19580 1.06910 -0.12130
C24J C -0.3100(3) 0.8117(2) 0.0546(4)
C24K C 0.1883(3) 0.8783(2) 0.0546(4)
C24A C 0.3100(3) 1.1883(2) -0.0546(4)
C24I C 0.1217(3) 1.3100(2) 0.0546(4)
C24B C -0.1883(3) 1.1217(2) -0.0546(4)
H14J H -0.33550 0.79970 0.08580
H14K H 0.20030 0.86480 0.08580
H14A H 0.33550 1.20030 -0.08580
H14I H 0.13520 1.33550 0.08580
H14B H -0.20030 1.13520 -0.08580
C25J C -0.3138(3) 0.8264(2) -0.0099(4)
C25K C 0.1736(3) 0.8598(2) -0.0099(4)
C25A C 0.3138(3) 1.1736(2) 0.0099(4)
C25I C 0.1402(3) 1.3138(2) -0.0099(4)
C25B C -0.1736(3) 1.1402(2) 0.0099(4)
H15J H -0.34150 0.82530 -0.02400
H15K H 0.17470 0.83320 -0.02400
H15A H 0.34150 1.17470 0.02400
H15I H 0.16680 1.34150 -0.02400
H15B H -0.17470 1.16680 0.02400
C26J C -0.2758(2) 0.8433(2) -0.0558(4)
C26K C 0.1567(2) 0.8809(2) -0.0558(4)
C26A C 0.2758(2) 1.1567(2) 0.0558(4)
C26I C 0.1191(2) 1.2758(2) -0.0558(4)
C26B C -0.1567(2) 1.1191(2) 0.0558(4)
H16J H -0.27860 0.85350 -0.10100
H16K H 0.14650 0.86790 -0.10100
H16A H 0.27860 1.14650 0.10100
H16I H 0.13210 1.27860 -0.10100
H16B H -0.14650 1.13210 0.10100
N1A N -0.05750(13) 0.99762(13) -0.3621(2)
N1B N 0.00238(13) 0.94488(13) -0.3621(2)
N1J N 0.05750(13) 1.00238(13) 0.3621(2)
N1K N -0.00238(13) 1.05512(13) 0.3621(2)
N1I N -0.05512(13) 0.94250(13) 0.3621(2)
N2A N -0.00947(12) 1.05386(12) -0.25444(19)
N2B N -0.05386(12) 0.93667(12) -0.25444(19)
N2J N 0.00947(12) 0.94614(12) 0.25444(19)
N2K N 0.05386(12) 1.06333(12) 0.25444(19)
N2I N -0.06333(12) 0.99053(12) 0.25444(19)
N3B N -0.08710(12) 0.85380(13) -0.2545(2)
N3J N 0.05910(12) 0.91290(13) 0.2545(2)
N3K N 0.08710(12) 1.14620(13) 0.2545(2)
N3I N -0.14620(12) 0.94090(13) 0.2545(2)
N3A N -0.05910(12) 1.08710(13) -0.2545(2)
N4B N -0.11714(12) 0.88919(13) -0.1760(2)
N4J N -0.00633(12) 0.88286(13) 0.1760(2)
N4K N 0.11714(12) 1.11081(13) 0.1760(2)
N4A N 0.00633(12) 1.11714(13) -0.1760(2)
N4I N -0.11081(12) 1.00633(13) 0.1760(2)
N5B N -0.18874(14) 0.80492(15) -0.1429(2)
N5J N 0.00634(14) 0.81126(15) 0.1429(2)
N5K N 0.18874(14) 1.19508(15) 0.1429(2)
N5A N -0.00634(14) 1.18874(15) -0.1429(2)
N5I N -0.19508(14) 0.99366(15) 0.1429(2)
N6B N -0.20084(16) 0.89418(16) -0.1929(2)
N6J N -0.09502(16) 0.79916(16) 0.1929(2)
N6K N 0.20084(16) 1.10582(16) 0.1929(2)
N6A N 0.09502(16) 1.20084(16) -0.1929(2)
N6I N -0.10582(16) 1.09502(16) 0.1929(2)
N7B N -0.16551(14) 0.94082(13) -0.0710(2)
N7J N -0.10633(14) 0.83449(13) 0.0710(2)
N7K N 0.16551(14) 1.05918(13) 0.0710(2)
N7A N 0.10633(14) 1.16551(13) -0.0710(2)
N7I N -0.05918(14) 1.10633(13) 0.0710(2)
N8J N -0.18177(16) 0.81905(15) 0.1088(2)
N8K N 0.18095(16) 0.99918(15) 0.1088(2)
N8A N 0.18177(16) 1.18095(15) -0.1088(2)
N8I N 0.00082(16) 1.18177(15) 0.1088(2)
N8B N -0.18095(16) 1.00082(15) -0.1088(2)
N9B N -0.15440(13) 0.85001(13) -0.0075(2)
N9J N -0.00441(13) 0.84560(13) 0.0075(2)
N9K N 0.15440(13) 1.14999(13) 0.0075(2)
N9A N 0.00441(13) 1.15440(13) -0.0075(2)
N9I N -0.14999(13) 1.00441(13) 0.0075(2)
N10B N -0.23517(15) 0.84558(14) -0.0384(2)
N10J N -0.08075(15) 0.76483(14) 0.0384(2)
N10K N 0.23517(15) 1.15442(14) 0.0384(2)
N10A N 0.08075(15) 1.23517(14) -0.0384(2)
N10I N -0.15442(15) 1.08075(14) 0.0384(2)
N11A N 0.05571(11) 1.08767(11) -0.18368(18)
N11I N -0.03196(11) 1.05571(11) 0.18368(18)
N11K N 0.08767(11) 1.03196(11) 0.18368(18)
N11J N -0.05571(11) 0.91233(11) 0.18368(18)
N11B N -0.08767(11) 0.96804(11) -0.18368(18)
H22A H 0.06360 1.06710 -0.20170
H22I H -0.00350 1.06360 0.20170
H22K H 0.06710 1.00350 0.20170
H22J H -0.06360 0.93290 0.20170
H22B H -0.06710 0.99650 -0.20170
N12B N -0.14408(12) 0.94184(11) 0.04535(18)
N12I N -0.05816(12) 1.08592(11) -0.04535(18)
N12A N 0.08592(12) 1.14408(11) 0.04535(18)
N12K N 0.14408(12) 1.05816(11) -0.04535(18)
N12J N -0.08592(12) 0.85592(11) -0.04535(18)
H23B H -0.14570 0.91400 0.03760
H23I H -0.08600 1.05970 -0.03760
H23A H 0.05970 1.14570 0.03760
H23K H 0.14570 1.08600 -0.03760
H23J H -0.05970 0.85430 -0.03760
loop_
_geom_bond_atom_site_label_1
_geom_bond_atom_site_label_2
_geom_bond_site_symmetry_1
_geom_bond_site_symmetry_2
Co1 N1 1_555 1_555
Co1 N2 1_555 1_555
Co1 N1A 1_555 1_555
Co1 N1B 1_555 1_555
Co1 N2A 1_555 1_555
Co1 N2B 1_555 1_555
Co2 N4 1_555 1_555
Co2 N5 1_555 1_555
Co2 N6 1_555 1_555
Co2 N7 1_555 1_555
Co2 N9 1_555 1_555
Co2 N10 1_555 1_555
C1 H1 1_555 1_555
C1 C2 1_555 1_555
C1 N1 1_555 1_555
C2 H2 1_555 1_555
C2 C3 1_555 1_555
C3 H3 1_555 1_555
C3 C4 1_555 1_555
C4 H4 1_555 1_555
C4 C5 1_555 1_555
C5 C6 1_555 1_555
C5 N1 1_555 1_555
C6 N2 1_555 1_555
C6 N3 1_555 1_555
C7 N2 1_555 1_555
C7 N4 1_555 1_555
C7 N11 1_555 1_555
C8 C9 1_555 1_555
C8 N3 1_555 1_555
C8 N4 1_555 1_555
C9 C10 1_555 1_555
C9 N5 1_555 1_555
C10 H5 1_555 1_555
C10 C11 1_555 1_555
C11 H6 1_555 1_555
C11 C12 1_555 1_555
C12 H7 1_555 1_555
C12 C13 1_555 1_555
C13 H8 1_555 1_555
C13 N5 1_555 1_555
C14 H9 1_555 1_555
C14 C15 1_555 1_555
C14 N6 1_555 1_555
C15 H10 1_555 1_555
C15 C16 1_555 1_555
C16 H11 1_555 1_555
C16 C17 1_555 1_555
C17 H12 1_555 1_555
C17 C18 1_555 1_555
C18 C19 1_555 1_555
C18 N6 1_555 1_555
C19 N7 1_555 1_555
C19 N8 1_555 1_555
C20 N7 1_555 1_555
C20 N12 1_555 1_555
C20 N9J 1_555 1_555
C21 C22 1_555 1_555
C21 N8 1_555 1_555
C21 N9J 1_555 1_555
C22 C23 1_555 1_555
C22 N10J 1_555 1_555
C23 H13 1_555 1_555
C23 C24 1_555 1_555
C24 H14 1_555 1_555
C24 C25 1_555 1_555
C25 H15 1_555 1_555
C25 C26 1_555 1_555
C26 H16 1_555 1_555
C26 N10J 1_555 1_555
N9 C20K 1_555 1_555
N9 C21K 1_555 1_555
N10 C22K 1_555 1_555
N10 C26K 1_555 1_555
N11 H22 1_555 1_555
N12 H23 1_555 1_555
Co1I N1J 1_555 1_555
Co1I N1K 1_555 1_555
Co1I N1I 1_555 1_555
Co1I N2J 1_555 1_555
Co1I N2K 1_555 1_555
Co1I N2I 1_555 1_555
Co2B N4B 1_555 1_555
Co2B N5B 1_555 1_555
Co2B N6B 1_555 1_555
Co2B N7B 1_555 1_555
Co2B N9B 1_555 1_555
Co2B N10B 1_555 1_555
Co2J N4J 1_555 1_555
Co2J N5J 1_555 1_555
Co2J N6J 1_555 1_555
Co2J N7J 1_555 1_555
Co2J N9J 1_555 1_555
Co2J N10J 1_555 1_555
Co2K N4K 1_555 1_555
Co2K N5K 1_555 1_555
Co2K N6K 1_555 1_555
Co2K N7K 1_555 1_555
Co2K N9K 1_555 1_555
Co2K N10K 1_555 1_555
Co2A N4A 1_555 1_555
Co2A N5A 1_555 1_555
Co2A N6A 1_555 1_555
Co2A N7A 1_555 1_555
Co2A N9A 1_555 1_555
Co2A N10A 1_555 1_555
Co2I N4I 1_555 1_555
Co2I N5I 1_555 1_555
Co2I N6I 1_555 1_555
Co2I N7I 1_555 1_555
Co2I N9I 1_555 1_555
Co2I N10I 1_555 1_555
C1A H1A 1_555 1_555
C1A C2A 1_555 1_555
C1A N1A 1_555 1_555
C1B H1B 1_555 1_555
C1B C2B 1_555 1_555
C1B N1B 1_555 1_555
C1J H1J 1_555 1_555
C1J C2J 1_555 1_555
C1J N1J 1_555 1_555
C1K H1K 1_555 1_555
C1K C2K 1_555 1_555
C1K N1K 1_555 1_555
C1I H1I 1_555 1_555
C1I C2I 1_555 1_555
C1I N1I 1_555 1_555
C2A H2A 1_555 1_555
C2A C3A 1_555 1_555
C2B H2B 1_555 1_555
C2B C3B 1_555 1_555
C2J H2J 1_555 1_555
C2J C3J 1_555 1_555
C2K H2K 1_555 1_555
C2K C3K 1_555 1_555
C2I H2I 1_555 1_555
C2I C3I 1_555 1_555
C3A H3A 1_555 1_555
C3A C4A 1_555 1_555
C3B H3B 1_555 1_555
C3B C4B 1_555 1_555
C3J H3J 1_555 1_555
C3J C4J 1_555 1_555
C3K H3K 1_555 1_555
C3K C4K 1_555 1_555
C3I H3I 1_555 1_555
C3I C4I 1_555 1_555
C4A H4A 1_555 1_555
C4A C5A 1_555 1_555
C4B H4B 1_555 1_555
C4B C5B 1_555 1_555
C4J H4J 1_555 1_555
C4J C5J 1_555 1_555
C4K H4K 1_555 1_555
C4K C5K 1_555 1_555
C4I H4I 1_555 1_555
C4I C5I 1_555 1_555
C5A C6A 1_555 1_555
C5A N1A 1_555 1_555
C5B C6B 1_555 1_555
C5B N1B 1_555 1_555
C5J C6J 1_555 1_555
C5J N1J 1_555 1_555
C5K C6K 1_555 1_555
C5K N1K 1_555 1_555
C5I C6I 1_555 1_555
C5I N1I 1_555 1_555
C6A N2A 1_555 1_555
C6A N3A 1_555 1_555
C6B N2B 1_555 1_555
C6B N3B 1_555 1_555
C6J N2J 1_555 1_555
C6J N3J 1_555 1_555
C6K N2K 1_555 1_555
C6K N3K 1_555 1_555
C6I N2I 1_555 1_555
C6I N3I 1_555 1_555
C7B N2B 1_555 1_555
C7B N4B 1_555 1_555
C7B N11B 1_555 1_555
C7J N2J 1_555 1_555
C7J N4J 1_555 1_555
C7J N11J 1_555 1_555
C7K N2K 1_555 1_555
C7K N4K 1_555 1_555
C7K N11K 1_555 1_555
C7A N2A 1_555 1_555
C7A N4A 1_555 1_555
C7A N11A 1_555 1_555
C7I N2I 1_555 1_555
C7I N4I 1_555 1_555
C7I N11I 1_555 1_555
C8B C9B 1_555 1_555
C8B N3B 1_555 1_555
C8B N4B 1_555 1_555
C8J C9J 1_555 1_555
C8J N3J 1_555 1_555
C8J N4J 1_555 1_555
C8K C9K 1_555 1_555
C8K N3K 1_555 1_555
C8K N4K 1_555 1_555
C8A C9A 1_555 1_555
C8A N3A 1_555 1_555
C8A N4A 1_555 1_555
C8I C9I 1_555 1_555
C8I N3I 1_555 1_555
C8I N4I 1_555 1_555
C9B C10B 1_555 1_555
C9B N5B 1_555 1_555
C9J C10J 1_555 1_555
C9J N5J 1_555 1_555
C9K C10K 1_555 1_555
C9K N5K 1_555 1_555
C9A C10A 1_555 1_555
C9A N5A 1_555 1_555
C9I C10I 1_555 1_555
C9I N5I 1_555 1_555
C10B H5B 1_555 1_555
C10B C11B 1_555 1_555
C10J H5J 1_555 1_555
C10J C11J 1_555 1_555
C10K H5K 1_555 1_555
C10K C11K 1_555 1_555
C10A H5A 1_555 1_555
C10A C11A 1_555 1_555
C10I H5I 1_555 1_555
C10I C11I 1_555 1_555
C11B H6B 1_555 1_555
C11B C12B 1_555 1_555
C11J H6J 1_555 1_555
C11J C12J 1_555 1_555
C11K H6K 1_555 1_555
C11K C12K 1_555 1_555
C11A H6A 1_555 1_555
C11A C12A 1_555 1_555
C11I H6I 1_555 1_555
C11I C12I 1_555 1_555
C12B H7B 1_555 1_555
C12B C13B 1_555 1_555
C12J H7J 1_555 1_555
C12J C13J 1_555 1_555
C12K H7K 1_555 1_555
C12K C13K 1_555 1_555
C12A H7A 1_555 1_555
C12A C13A 1_555 1_555
C12I H7I 1_555 1_555
C12I C13I 1_555 1_555
C13B H8B 1_555 1_555
C13B N5B 1_555 1_555
C13J H8J 1_555 1_555
C13J N5J 1_555 1_555
C13K H8K 1_555 1_555
C13K N5K 1_555 1_555
C13A H8A 1_555 1_555
C13A N5A 1_555 1_555
C13I H8I 1_555 1_555
C13I N5I 1_555 1_555
C14B H9B 1_555 1_555
C14B C15B 1_555 1_555
C14B N6B 1_555 1_555
C14J H9J 1_555 1_555
C14J C15J 1_555 1_555
C14J N6J 1_555 1_555
C14K H9K 1_555 1_555
C14K C15K 1_555 1_555
C14K N6K 1_555 1_555
C14A H9A 1_555 1_555
C14A C15A 1_555 1_555
C14A N6A 1_555 1_555
C14I H9I 1_555 1_555
C14I C15I 1_555 1_555
C14I N6I 1_555 1_555
C15B H10B 1_555 1_555
C15B C16B 1_555 1_555
C15J H10J 1_555 1_555
C15J C16J 1_555 1_555
C15K H10K 1_555 1_555
C15K C16K 1_555 1_555
C15A H10A 1_555 1_555
C15A C16A 1_555 1_555
C15I H10I 1_555 1_555
C15I C16I 1_555 1_555
C16B H11B 1_555 1_555
C16B C17B 1_555 1_555
C16J H11J 1_555 1_555
C16J C17J 1_555 1_555
C16K H11K 1_555 1_555
C16K C17K 1_555 1_555
C16A H11A 1_555 1_555
C16A C17A 1_555 1_555
C16I H11I 1_555 1_555
C16I C17I 1_555 1_555
C17B H12B 1_555 1_555
C17B C18B 1_555 1_555
C17J H12J 1_555 1_555
C17J C18J 1_555 1_555
C17K H12K 1_555 1_555
C17K C18K 1_555 1_555
C17A H12A 1_555 1_555
C17A C18A 1_555 1_555
C17I H12I 1_555 1_555
C17I C18I 1_555 1_555
C18B C19B 1_555 1_555
C18B N6B 1_555 1_555
C18J C19J 1_555 1_555
C18J N6J 1_555 1_555
C18K C19K 1_555 1_555
C18K N6K 1_555 1_555
C18A C19A 1_555 1_555
C18A N6A 1_555 1_555
C18I C19I 1_555 1_555
C18I N6I 1_555 1_555
C19B N7B 1_555 1_555
C19B N8B 1_555 1_555
C19J N7J 1_555 1_555
C19J N8J 1_555 1_555
C19K N7K 1_555 1_555
C19K N8K 1_555 1_555
C19A N7A 1_555 1_555
C19A N8A 1_555 1_555
C19I N7I 1_555 1_555
C19I N8I 1_555 1_555
C20J N7J 1_555 1_555
C20J N9B 1_555 1_555
C20J N12J 1_555 1_555
C20K N7K 1_555 1_555
C20K N12K 1_555 1_555
C20A N7A 1_555 1_555
C20A N9K 1_555 1_555
C20A N12A 1_555 1_555
C20I N7I 1_555 1_555
C20I N9A 1_555 1_555
C20I N12I 1_555 1_555
C20B N7B 1_555 1_555
C20B N9I 1_555 1_555
C20B N12B 1_555 1_555
C21J C22J 1_555 1_555
C21J N8J 1_555 1_555
C21J N9B 1_555 1_555
C21K C22K 1_555 1_555
C21K N8K 1_555 1_555
C21A C22A 1_555 1_555
C21A N8A 1_555 1_555
C21A N9K 1_555 1_555
C21I C22I 1_555 1_555
C21I N8I 1_555 1_555
C21I N9A 1_555 1_555
C21B C22B 1_555 1_555
C21B N8B 1_555 1_555
C21B N9I 1_555 1_555
C22J C23J 1_555 1_555
C22J N10B 1_555 1_555
C22K C23K 1_555 1_555
C22A C23A 1_555 1_555
C22A N10K 1_555 1_555
C22I C23I 1_555 1_555
C22I N10A 1_555 1_555
C22B C23B 1_555 1_555
C22B N10I 1_555 1_555
C23J H13J 1_555 1_555
C23J C24J 1_555 1_555
C23K H13K 1_555 1_555
C23K C24K 1_555 1_555
C23A H13A 1_555 1_555
C23A C24A 1_555 1_555
C23I H13I 1_555 1_555
C23I C24I 1_555 1_555
C23B H13B 1_555 1_555
C23B C24B 1_555 1_555
C24J H14J 1_555 1_555
C24J C25J 1_555 1_555
C24K H14K 1_555 1_555
C24K C25K 1_555 1_555
C24A H14A 1_555 1_555
C24A C25A 1_555 1_555
C24I H14I 1_555 1_555
C24I C25I 1_555 1_555
C24B H14B 1_555 1_555
C24B C25B 1_555 1_555
C25J H15J 1_555 1_555
C25J C26J 1_555 1_555
C25K H15K 1_555 1_555
C25K C26K 1_555 1_555
C25A H15A 1_555 1_555
C25A C26A 1_555 1_555
C25I H15I 1_555 1_555
C25I C26I 1_555 1_555
C25B H15B 1_555 1_555
C25B C26B 1_555 1_555
C26J H16J 1_555 1_555
C26J N10B 1_555 1_555
C26K H16K 1_555 1_555
C26A H16A 1_555 1_555
C26A N10K 1_555 1_555
C26I H16I 1_555 1_555
C26I N10A 1_555 1_555
C26B H16B 1_555 1_555
C26B N10I 1_555 1_555
N11A H22A 1_555 1_555
N11I H22I 1_555 1_555
N11K H22K 1_555 1_555
N11J H22J 1_555 1_555
N11B H22B 1_555 1_555
N12B H23B 1_555 1_555
N12I H23I 1_555 1_555
N12A H23A 1_555 1_555
N12K H23K 1_555 1_555
N12J H23J 1_555 1_555

#END
