
#######################################################################
#
#                 Cambridge Crystallographic Data Centre
#                                CCDC 
#
#######################################################################
#
# If this CIF has been generated from an entry in the Cambridge 
# Structural Database, then it will include bibliographic, chemical, 
# crystal, experimental, refinement or atomic coordinate data resulting 
# from the CCDC's data processing and validation procedures.
#
#######################################################################

data_RAHYUU
_chemical_formula_moiety         'C96 H168 Cr8 N48 Ni6 12+,12(Br1 1-),45(H2 O1)'
_chemical_name_systematic        
"tetracosakis(\m~2~-Cyano-C,N)-octakis(1,4,7-trimethyl-1,4,7-triazacyclononane-N,N',N'')-octa-chromium(iii)-hexa-nickel(ii) dodecabromide hydrate"
_symmetry_cell_setting           rhombohedral
_symmetry_space_group_name_H-M   'R -3'
_symmetry_Int_Tables_number      148
_space_group_name_Hall           '-R 3'
loop_
_symmetry_equiv_pos_site_id
_symmetry_equiv_pos_as_xyz
1 x,y,z
2 -y,x-y,z
3 -x+y,-x,z
4 1/3+x,2/3+y,2/3+z
5 1/3-y,2/3+x-y,2/3+z
6 1/3-x+y,2/3-x,2/3+z
7 2/3+x,1/3+y,1/3+z
8 2/3-y,1/3+x-y,1/3+z
9 2/3-x+y,1/3-x,1/3+z
10 -x,-y,-z
11 y,-x+y,-z
12 x-y,x,-z
13 2/3-x,1/3-y,1/3-z
14 2/3+y,1/3-x+y,1/3-z
15 2/3+x-y,1/3+x,1/3-z
16 1/3-x,2/3-y,2/3-z
17 1/3+y,2/3-x+y,2/3-z
18 1/3+x-y,2/3+x,2/3-z
_cell_length_a                   19.4604(3)
_cell_length_b                   19.4604(3)
_cell_length_c                   41.7172(1)
_cell_angle_alpha                90
_cell_angle_beta                 90
_cell_angle_gamma                120
_cell_volume                     13682
_exptl_crystal_colour            orange
_exptl_crystal_description       parallelepiped
_cell_formula_units_Z            3
loop_
_atom_site_label
_atom_site_type_symbol
_atom_site_fract_x
_atom_site_fract_y
_atom_site_fract_z
Cr1 Cr 0.4978(1) 0.5022(1) 0.2855(1)
Cr2 Cr 0.66670 0.33330 0.1881(1)
Ni1 Ni 0.7736(1) 0.5471(1) 0.2719(1)
C1 C 0.6739(4) 0.5392(4) 0.2743(2)
N1 N 0.6127(4) 0.5332(4) 0.2769(1)
C2 C 0.7381(4) 0.4759(4) 0.2376(2)
N2 N 0.7151(4) 0.4303(4) 0.2171(1)
C3 C 0.8653(4) 0.5393(4) 0.2743(2)
N3 N 0.4669(3) 0.3875(4) 0.2768(1)
C4 C 0.8018(4) 0.6038(4) 0.3108(2)
N4 N 0.5159(3) 0.4845(3) 0.3317(1)
N5 N 0.3820(4) 0.4767(4) 0.2925(2)
N6 N 0.4763(4) 0.5235(4) 0.2391(2)
N7 N 0.5233(4) 0.6179(4) 0.2926(2)
C5 C 0.3408(8) 0.4790(9) 0.2664(3)
C7 C 0.4016(9) 0.510(1) 0.2316(4)
C9 C 0.5533(9) 0.6522(9) 0.2549(4)
C11 C 0.5384(9) 0.6225(9) 0.2382(4)
C13 C 0.4443(10) 0.5985(10) 0.3175(4)
C15 C 0.4018(10) 0.5558(10) 0.3174(4)
C17 C 0.3355(4) 0.4064(5) 0.3130(2)
C18 C 0.5086(6) 0.4919(6) 0.2147(2)
C19 C 0.5938(5) 0.6647(5) 0.3130(2)
N8 N 0.7603(4) 0.3802(5) 0.1562(1)
C20 C 0.7558(12) 0.3287(13) 0.1310(5)
C22 C 0.7495(13) 0.4561(12) 0.1412(5)
C24 C 0.8385(6) 0.4191(9) 0.1723(2)
Br1 Br 0.8406(1) 0.6812(1) 0.2322(1)
H1 H 0.3612(20) 0.4146(15) 0.3334(5)
H2 H 0.3319(30) 0.3604(8) 0.3029(7)
H3 H 0.2831(12) 0.3986(22) 0.3161(12)
H4 H 0.4852(26) 0.4356(7) 0.2174(9)
H5 H 0.5651(7) 0.5169(25) 0.2171(9)
H6 H 0.4962(31) 0.5027(31) 0.1936(2)
H7 H 0.6400(7) 0.6693(30) 0.3026(7)
H8 H 0.5863(15) 0.6384(19) 0.3333(6)
H9 H 0.6009(21) 0.7166(13) 0.3165(12)
H10 H 0.8433(25) 0.3809(15) 0.1853(20)
H11 H 0.8431(25) 0.4614(39) 0.1856(20)
H12 H 0.8797(6) 0.4401(57) 0.1565(2)
N2A N 0.5697(4) 0.2848(4) 0.2171(1)
C2A C 0.5241(4) 0.2622(4) 0.2376(2)
Ni1A Ni 0.4529(1) 0.2265(1) 0.2719(1)
C1A C 0.4608(4) 0.1347(4) 0.2743(2)
N1A N 0.4668(4) 0.0795(4) 0.2769(1)
Cr1A Cr 0.4978(1) -0.0044(1) 0.2855(1)
N3A N 0.6125(3) 0.0794(4) 0.2768(1)
C3B C 0.6740(4) 0.1347(4) 0.2743(2)
Ni1B Ni 0.7735(1) 0.2264(1) 0.2719(1)
C1B C 0.8653(4) 0.3261(4) 0.2743(2)
N1B N 0.9205(4) 0.3873(4) 0.2769(1)
Cr1B Cr 1.0044(1) 0.5022(1) 0.2855(1)
N3B N 0.9206(3) 0.5331(4) 0.2768(1)
N4P N 0.817833(300) 0.635267(300) 0.334967(100)
Cr1P Cr 0.835533(100) 0.671067(100) 0.381167(100)
N1P N 0.866533(400) 0.587167(400) 0.389767(100)
C1P C 0.872533(400) 0.531967(400) 0.392367(200)
Ni1P Ni 0.880433(100) 0.440167(100) 0.394767(100)
C2P C 0.809233(400) 0.404467(400) 0.429067(200)
N2P N 0.763633(400) 0.381867(400) 0.449567(100)
Cr2P Cr 0.66663 0.33327 0.478567(100)
N2Q N 0.618133(400) 0.381767(400) 0.449567(100)
C2Q C 0.595533(400) 0.404767(400) 0.429067(200)
Ni1Q Ni 0.559833(100) 0.440267(100) 0.394767(100)
C1Q C 0.468033(400) 0.340567(400) 0.392367(200)
N1Q N 0.412833(400) 0.279367(400) 0.389767(100)
Cr1Q Cr 0.328933(100) 0.164467(100) 0.381167(100)
N3Q N 0.412733(300) 0.133567(400) 0.389867(100)
C3O C 0.468033(400) 0.127367(400) 0.392367(200)
Ni1O Ni 0.559733(100) 0.119567(100) 0.394767(100)
C1O C 0.659433(400) 0.127467(400) 0.392367(200)
N1O N 0.720633(400) 0.133467(400) 0.389767(100)
Cr1O Cr 0.835533(100) 0.164467(100) 0.381167(100)
N3O N 0.866433(300) 0.279167(400) 0.389867(100)
C3P C 0.872633(400) 0.340667(400) 0.392367(200)
C4P C 0.937133(400) 0.468667(400) 0.355867(200)
N4B N 0.9686(3) 0.4841(3) 0.3317(1)
N5B N 1.0947(4) 0.6180(4) 0.2925(2)
C5B C 1.1382(8) 0.6592(9) 0.2664(3)
C7B C 1.1084(9) 0.5984(10) 0.2316(4)
N6B N 1.0472(4) 0.5237(4) 0.2391(2)
N7B N 1.0946(4) 0.4767(4) 0.2926(2)
C9B C 1.0989(9) 0.4467(9) 0.2549(4)
C11B C 1.0841(9) 0.4616(9) 0.2382(4)
C18B C 0.9833(6) 0.4914(6) 0.2147(2)
H4B H 0.9504(26) 0.5148(7) 0.2174(9)
H5B H 0.9518(7) 0.4349(25) 0.2171(9)
H6B H 1.0065(31) 0.5038(31) 0.1936(2)
C13B C 1.1542(10) 0.5557(10) 0.3175(4)
C15B C 1.154(1) 0.5982(10) 0.3174(4)
C17B C 1.0709(4) 0.6645(5) 0.3130(2)
H1B H 1.0534(20) 0.6388(15) 0.3334(5)
H2B H 1.0285(30) 0.6681(8) 0.3029(7)
H3B H 1.1155(12) 0.7169(22) 0.3161(12)
C19B C 1.0709(5) 0.4062(5) 0.3130(2)
H7B H 1.0293(7) 0.360(3) 0.3026(7)
H8B H 1.0521(15) 0.4137(19) 0.3333(6)
H9B H 1.1157(21) 0.3991(13) 0.3165(12)
N4O N 0.817433(300) 0.182167(300) 0.334967(100)
C4B C 0.8020(4) 0.1982(4) 0.3108(2)
C2B C 0.7378(4) 0.2619(4) 0.2376(2)
N2B N 0.7152(4) 0.2849(4) 0.2171(1)
C22B C 0.7066(13) 0.2505(12) 0.1412(5)
N8B N 0.6199(4) 0.2397(5) 0.1562(1)
N8A N 0.6198(4) 0.3801(5) 0.1562(1)
C20A C 0.6713(12) 0.4271(13) 0.1310(5)
C22A C 0.5439(13) 0.2934(12) 0.1412(5)
C20B C 0.5729(12) 0.2442(13) 0.1310(5)
C24B C 0.5806(6) 0.1615(9) 0.1723(2)
H10B H 0.5376(25) 0.1567(15) 0.1853(20)
H11B H 0.6183(25) 0.1569(39) 0.1856(20)
H12B H 0.5604(6) 0.1203(57) 0.1565(2)
C24A C 0.5809(6) 0.4194(9) 0.1723(2)
H10A H 0.6191(25) 0.4624(15) 0.1853(20)
H11A H 0.5386(25) 0.3817(39) 0.1856(20)
H12A H 0.5599(6) 0.4396(57) 0.1565(2)
N5O N 0.951333(400) 0.189967(400) 0.374167(200)
C5O C 0.992533(800) 0.187667(900) 0.400267(300)
C7O C 0.931733(900) 0.156667(1000) 0.435067(400)
N6O N 0.857033(400) 0.143167(400) 0.427567(200)
N7O N 0.810033(400) 0.048767(400) 0.374067(200)
C9O C 0.780033(900) 0.014467(900) 0.411767(400)
C11O C 0.794933(900) 0.044167(900) 0.428467(400)
C18O C 0.824733(600) 0.174767(600) 0.451967(200)
H4O H 0.848133(2600) 0.231067(700) 0.449267(900)
H5O H 0.768233(700) 0.149767(2500) 0.449567(900)
H6O H 0.837133(3100) 0.163967(3100) 0.473067(200)
C13O C 0.889033(1000) 0.068167(1000) 0.349167(400)
C15O C 0.931533(1000) 0.110867(1000) 0.349267(400)
C17O C 0.997833(400) 0.260267(500) 0.353667(200)
H1O H 0.972133(2000) 0.252067(1500) 0.333267(500)
H2O H 1.001433(3000) 0.306267(800) 0.363767(700)
H3O H 1.050233(1200) 0.268067(2200) 0.350567(1200)
C19O C 0.739533(500) 0.001967(500) 0.353667(200)
H7O H 0.693333(700) -0.002633(3000) 0.364067(700)
H8O H 0.747033(1500) 0.028267(1900) 0.333367(600)
H9O H 0.732433(2100) -0.049933(1300) 0.350167(1200)
C2O C 0.595233(400) 0.190767(400) 0.429067(200)
N2O N 0.618233(400) 0.236367(400) 0.449567(100)
N8P N 0.713533(400) 0.286567(500) 0.510467(100)
C20P C 0.662033(1200) 0.239567(1300) 0.535667(500)
C22O C 0.583833(1300) 0.210567(1200) 0.525467(500)
N8O N 0.573033(400) 0.286467(500) 0.510467(100)
N8Q N 0.713433(400) 0.426967(500) 0.510467(100)
C20Q C 0.760433(1200) 0.422467(1300) 0.535667(500)
C22P C 0.789433(1300) 0.373267(1200) 0.525467(500)
C24P C 0.752433(600) 0.247267(900) 0.494367(200)
H10P H 0.714233(2500) 0.204267(1500) 0.481367(2000)
H11P H 0.794733(2500) 0.284967(3900) 0.481067(2000)
H12P H 0.773433(600) 0.227067(5700) 0.510167(200)
C22Q C 0.626733(1300) 0.416167(1200) 0.525467(500)
C20O C 0.577533(1200) 0.337967(1300) 0.535667(500)
C24O C 0.494833(600) 0.247567(900) 0.494367(200)
H10O H 0.490033(2500) 0.285767(1500) 0.481367(2000)
H11O H 0.490233(2500) 0.205267(3900) 0.481067(2000)
H12O H 0.453633(600) 0.226567(5700) 0.510167(200)
C24Q C 0.752733(600) 0.505167(900) 0.494367(200)
H10Q H 0.795733(2500) 0.509967(1500) 0.481367(2000)
H11Q H 0.715033(2500) 0.509767(3900) 0.481067(2000)
H12Q H 0.772933(600) 0.546367(5700) 0.510167(200)
C4O C 0.531533(400) 0.062867(400) 0.355867(200)
N4A N 0.5155(3) 0.0314(3) 0.3317(1)
N5A N 0.5233(4) -0.0947(4) 0.2925(2)
C5A C 0.5210(8) -0.1382(9) 0.2664(3)
C7A C 0.4900(9) -0.1084(10) 0.2316(4)
N6A N 0.4765(4) -0.0472(4) 0.2391(2)
N7A N 0.3821(4) -0.0946(4) 0.2926(2)
C9A C 0.3478(9) -0.0989(9) 0.2549(4)
C11A C 0.3775(9) -0.0841(9) 0.2382(4)
C18A C 0.5081(6) 0.0167(6) 0.2147(2)
H4A H 0.5644(26) 0.0496(7) 0.2174(9)
H5A H 0.4831(7) 0.0482(25) 0.2171(9)
H6A H 0.4973(31) -0.0065(31) 0.1936(2)
C13A C 0.4015(10) -0.1542(10) 0.3175(4)
C15A C 0.4442(10) -0.154(1) 0.3174(4)
C17A C 0.5936(4) -0.0709(5) 0.3130(2)
H1A H 0.5854(20) -0.0534(15) 0.3334(5)
H2A H 0.6396(30) -0.0285(8) 0.3029(7)
H3A H 0.6014(12) -0.1155(22) 0.3161(12)
C19A C 0.3353(5) -0.0709(5) 0.3130(2)
H7A H 0.3307(7) -0.0293(30) 0.3026(7)
H8A H 0.3616(15) -0.0521(19) 0.3333(6)
H9A H 0.2834(21) -0.1157(13) 0.3165(12)
N4Q N 0.364733(300) 0.182567(300) 0.334967(100)
C4A C 0.3962(4) 0.1980(4) 0.3108(2)
C3A C 0.4607(4) 0.3260(4) 0.2743(2)
C4Q C 0.531333(400) 0.468467(400) 0.355867(200)
C3Q C 0.659333(400) 0.531967(400) 0.392367(200)
N3P N 0.720833(300) 0.587267(400) 0.389867(100)
N5P N 0.810033(400) 0.761367(400) 0.374167(200)
C5P C 0.812333(800) 0.804867(900) 0.400267(300)
C7P C 0.843333(900) 0.775067(1000) 0.435067(400)
N6P N 0.856833(400) 0.713867(400) 0.427567(200)
N7P N 0.951233(400) 0.761267(400) 0.374067(200)
C9P C 0.985533(900) 0.765567(900) 0.411767(400)
C11P C 0.955833(900) 0.750767(900) 0.428467(400)
C18P C 0.825233(600) 0.649967(600) 0.451967(200)
H4P H 0.768933(2600) 0.617067(700) 0.449267(900)
H5P H 0.850233(700) 0.618467(2500) 0.449567(900)
H6P H 0.836033(3100) 0.673167(3100) 0.473067(200)
C13P C 0.931833(1000) 0.820867(1000) 0.349167(400)
C15P C 0.889133(1000) 0.820667(1000) 0.349267(400)
C17P C 0.739733(400) 0.737567(500) 0.353667(200)
H1P H 0.747933(2000) 0.720067(1500) 0.333267(500)
H2P H 0.693733(3000) 0.695167(800) 0.363767(700)
H3P H 0.731933(1200) 0.782167(2200) 0.350567(1200)
C19P C 0.998033(500) 0.737567(500) 0.353667(200)
H7P H 1.002633(700) 0.695967(3000) 0.364067(700)
H8P H 0.971733(1500) 0.718767(1900) 0.333367(600)
H9P H 1.049933(2100) 0.782367(1300) 0.350167(1200)
N5Q N 0.238633(400) 0.048667(400) 0.374167(200)
C5Q C 0.195133(800) 0.007467(900) 0.400267(300)
C7Q C 0.224933(900) 0.068267(1000) 0.435067(400)
N6Q N 0.286133(400) 0.142967(400) 0.427567(200)
N7Q N 0.238733(400) 0.189967(400) 0.374067(200)
C9Q C 0.234433(900) 0.219967(900) 0.411767(400)
C11Q C 0.249233(900) 0.205067(900) 0.428467(400)
C18Q C 0.350033(600) 0.175267(600) 0.451967(200)
H4Q H 0.382933(2600) 0.151867(700) 0.449267(900)
H5Q H 0.381533(700) 0.231767(2500) 0.449567(900)
H6Q H 0.326833(3100) 0.162867(3100) 0.473067(200)
C13Q C 0.179133(1000) 0.110967(1000) 0.349167(400)
C15Q C 0.179333(1000) 0.068467(1000) 0.349267(400)
C17Q C 0.262433(400) 0.002167(500) 0.353667(200)
H1Q H 0.279933(2000) 0.027867(1500) 0.333267(500)
H2Q H 0.304833(3000) -0.001433(800) 0.363767(700)
H3Q H 0.217833(1200) -0.050233(2200) 0.350567(1200)
C19Q C 0.262433(500) 0.260467(500) 0.353667(200)
H7Q H 0.304033(700) 0.306667(3000) 0.364067(700)
H8Q H 0.281233(1500) 0.252967(1900) 0.333367(600)
H9Q H 0.217633(2100) 0.267567(1300) 0.350167(1200)
loop_
_geom_bond_atom_site_label_1
_geom_bond_atom_site_label_2
_geom_bond_site_symmetry_1
_geom_bond_site_symmetry_2
Cr1 N1 1_555 1_555
Cr1 N3 1_555 1_555
Cr1 N4 1_555 1_555
Cr1 N5 1_555 1_555
Cr1 N6 1_555 1_555
Cr1 N7 1_555 1_555
Cr2 N2 1_555 1_555
Cr2 N8 1_555 1_555
Cr2 N2A 1_555 1_555
Cr2 N2B 1_555 1_555
Cr2 N8B 1_555 1_555
Cr2 N8A 1_555 1_555
Ni1 C1 1_555 1_555
Ni1 C2 1_555 1_555
Ni1 C3 1_555 1_555
Ni1 C4 1_555 1_555
Ni1 Br1 1_555 1_555
C1 N1 1_555 1_555
C2 N2 1_555 1_555
C3 N3B 1_555 1_555
N3 C3A 1_555 1_555
C4 N4P 1_555 1_555
N4 C4Q 1_555 1_555
N5 C5 1_555 1_555
N5 C15 1_555 1_555
N5 C17 1_555 1_555
N6 C7 1_555 1_555
N6 C11 1_555 1_555
N6 C18 1_555 1_555
N7 C9 1_555 1_555
N7 C13 1_555 1_555
N7 C19 1_555 1_555
C5 C7 1_555 1_555
C9 C11 1_555 1_555
C13 C15 1_555 1_555
C17 H1 1_555 1_555
C17 H2 1_555 1_555
C17 H3 1_555 1_555
C18 H4 1_555 1_555
C18 H5 1_555 1_555
C18 H6 1_555 1_555
C19 H7 1_555 1_555
C19 H8 1_555 1_555
C19 H9 1_555 1_555
N8 C20 1_555 1_555
N8 C22 1_555 1_555
N8 C24 1_555 1_555
C20 C22B 1_555 1_555
C22 C20A 1_555 1_555
C24 H10 1_555 1_555
C24 H11 1_555 1_555
C24 H12 1_555 1_555
N2A C2A 1_555 1_555
C2A Ni1A 1_555 1_555
Ni1A C1A 1_555 1_555
Ni1A C4A 1_555 1_555
Ni1A C3A 1_555 1_555
C1A N1A 1_555 1_555
N1A Cr1A 1_555 1_555
Cr1A N3A 1_555 1_555
Cr1A N4A 1_555 1_555
Cr1A N5A 1_555 1_555
Cr1A N6A 1_555 1_555
Cr1A N7A 1_555 1_555
N3A C3B 1_555 1_555
C3B Ni1B 1_555 1_555
Ni1B C1B 1_555 1_555
Ni1B C4B 1_555 1_555
Ni1B C2B 1_555 1_555
C1B N1B 1_555 1_555
N1B Cr1B 1_555 1_555
Cr1B N3B 1_555 1_555
Cr1B N4B 1_555 1_555
Cr1B N5B 1_555 1_555
Cr1B N6B 1_555 1_555
Cr1B N7B 1_555 1_555
N4P Cr1P 1_555 1_555
Cr1P N1P 1_555 1_555
Cr1P N3P 1_555 1_555
Cr1P N5P 1_555 1_555
Cr1P N6P 1_555 1_555
Cr1P N7P 1_555 1_555
N1P C1P 1_555 1_555
C1P Ni1P 1_555 1_555
Ni1P C2P 1_555 1_555
Ni1P C3P 1_555 1_555
Ni1P C4P 1_555 1_555
C2P N2P 1_555 1_555
N2P Cr2P 1_555 1_555
Cr2P N2Q 1_555 1_555
Cr2P N2O 1_555 1_555
Cr2P N8P 1_555 1_555
Cr2P N8O 1_555 1_555
Cr2P N8Q 1_555 1_555
N2Q C2Q 1_555 1_555
C2Q Ni1Q 1_555 1_555
Ni1Q C1Q 1_555 1_555
Ni1Q C4Q 1_555 1_555
Ni1Q C3Q 1_555 1_555
C1Q N1Q 1_555 1_555
N1Q Cr1Q 1_555 1_555
Cr1Q N3Q 1_555 1_555
Cr1Q N4Q 1_555 1_555
Cr1Q N5Q 1_555 1_555
Cr1Q N6Q 1_555 1_555
Cr1Q N7Q 1_555 1_555
N3Q C3O 1_555 1_555
C3O Ni1O 1_555 1_555
Ni1O C1O 1_555 1_555
Ni1O C2O 1_555 1_555
Ni1O C4O 1_555 1_555
C1O N1O 1_555 1_555
N1O Cr1O 1_555 1_555
Cr1O N3O 1_555 1_555
Cr1O N4O 1_555 1_555
Cr1O N5O 1_555 1_555
Cr1O N6O 1_555 1_555
Cr1O N7O 1_555 1_555
N3O C3P 1_555 1_555
C4P N4B 1_555 1_555
N5B C5B 1_555 1_555
N5B C15B 1_555 1_555
N5B C17B 1_555 1_555
C5B C7B 1_555 1_555
C7B N6B 1_555 1_555
N6B C11B 1_555 1_555
N6B C18B 1_555 1_555
N7B C9B 1_555 1_555
N7B C13B 1_555 1_555
N7B C19B 1_555 1_555
C9B C11B 1_555 1_555
C18B H4B 1_555 1_555
C18B H5B 1_555 1_555
C18B H6B 1_555 1_555
C13B C15B 1_555 1_555
C17B H1B 1_555 1_555
C17B H2B 1_555 1_555
C17B H3B 1_555 1_555
C19B H7B 1_555 1_555
C19B H8B 1_555 1_555
C19B H9B 1_555 1_555
N4O C4B 1_555 1_555
C2B N2B 1_555 1_555
C22B N8B 1_555 1_555
N8B C20B 1_555 1_555
N8B C24B 1_555 1_555
N8A C20A 1_555 1_555
N8A C22A 1_555 1_555
N8A C24A 1_555 1_555
C22A C20B 1_555 1_555
C24B H10B 1_555 1_555
C24B H11B 1_555 1_555
C24B H12B 1_555 1_555
C24A H10A 1_555 1_555
C24A H11A 1_555 1_555
C24A H12A 1_555 1_555
N5O C5O 1_555 1_555
N5O C15O 1_555 1_555
N5O C17O 1_555 1_555
C5O C7O 1_555 1_555
C7O N6O 1_555 1_555
N6O C11O 1_555 1_555
N6O C18O 1_555 1_555
N7O C9O 1_555 1_555
N7O C13O 1_555 1_555
N7O C19O 1_555 1_555
C9O C11O 1_555 1_555
C18O H4O 1_555 1_555
C18O H5O 1_555 1_555
C18O H6O 1_555 1_555
C13O C15O 1_555 1_555
C17O H1O 1_555 1_555
C17O H2O 1_555 1_555
C17O H3O 1_555 1_555
C19O H7O 1_555 1_555
C19O H8O 1_555 1_555
C19O H9O 1_555 1_555
C2O N2O 1_555 1_555
N8P C20P 1_555 1_555
N8P C22P 1_555 1_555
N8P C24P 1_555 1_555
C20P C22O 1_555 1_555
C22O N8O 1_555 1_555
N8O C20O 1_555 1_555
N8O C24O 1_555 1_555
N8Q C20Q 1_555 1_555
N8Q C22Q 1_555 1_555
N8Q C24Q 1_555 1_555
C20Q C22P 1_555 1_555
C24P H10P 1_555 1_555
C24P H11P 1_555 1_555
C24P H12P 1_555 1_555
C22Q C20O 1_555 1_555
C24O H10O 1_555 1_555
C24O H11O 1_555 1_555
C24O H12O 1_555 1_555
C24Q H10Q 1_555 1_555
C24Q H11Q 1_555 1_555
C24Q H12Q 1_555 1_555
C4O N4A 1_555 1_555
N5A C5A 1_555 1_555
N5A C15A 1_555 1_555
N5A C17A 1_555 1_555
C5A C7A 1_555 1_555
C7A N6A 1_555 1_555
N6A C11A 1_555 1_555
N6A C18A 1_555 1_555
N7A C9A 1_555 1_555
N7A C13A 1_555 1_555
N7A C19A 1_555 1_555
C9A C11A 1_555 1_555
C18A H4A 1_555 1_555
C18A H5A 1_555 1_555
C18A H6A 1_555 1_555
C13A C15A 1_555 1_555
C17A H1A 1_555 1_555
C17A H2A 1_555 1_555
C17A H3A 1_555 1_555
C19A H7A 1_555 1_555
C19A H8A 1_555 1_555
C19A H9A 1_555 1_555
N4Q C4A 1_555 1_555
C3Q N3P 1_555 1_555
N5P C5P 1_555 1_555
N5P C15P 1_555 1_555
N5P C17P 1_555 1_555
C5P C7P 1_555 1_555
C7P N6P 1_555 1_555
N6P C11P 1_555 1_555
N6P C18P 1_555 1_555
N7P C9P 1_555 1_555
N7P C13P 1_555 1_555
N7P C19P 1_555 1_555
C9P C11P 1_555 1_555
C18P H4P 1_555 1_555
C18P H5P 1_555 1_555
C18P H6P 1_555 1_555
C13P C15P 1_555 1_555
C17P H1P 1_555 1_555
C17P H2P 1_555 1_555
C17P H3P 1_555 1_555
C19P H7P 1_555 1_555
C19P H8P 1_555 1_555
C19P H9P 1_555 1_555
N5Q C5Q 1_555 1_555
N5Q C15Q 1_555 1_555
N5Q C17Q 1_555 1_555
C5Q C7Q 1_555 1_555
C7Q N6Q 1_555 1_555
N6Q C11Q 1_555 1_555
N6Q C18Q 1_555 1_555
N7Q C9Q 1_555 1_555
N7Q C13Q 1_555 1_555
N7Q C19Q 1_555 1_555
C9Q C11Q 1_555 1_555
C18Q H4Q 1_555 1_555
C18Q H5Q 1_555 1_555
C18Q H6Q 1_555 1_555
C13Q C15Q 1_555 1_555
C17Q H1Q 1_555 1_555
C17Q H2Q 1_555 1_555
C17Q H3Q 1_555 1_555
C19Q H7Q 1_555 1_555
C19Q H8Q 1_555 1_555
C19Q H9Q 1_555 1_555

#END
