
#######################################################################
#
#                 Cambridge Crystallographic Data Centre
#                                CCDC 
#
#######################################################################
#
# If this CIF has been generated from an entry in the Cambridge 
# Structural Database, then it will include bibliographic, chemical, 
# crystal, experimental, refinement or atomic coordinate data resulting 
# from the CCDC's data processing and validation procedures.
#
#######################################################################

data_WICJAT
_chemical_formula_moiety         'C24 H99 B18 N24 O60 V12 Zn6,13(H2 O1)'
_chemical_name_systematic        
'dodecakis(Ethylene-1,2-diamine)-octadecaborato-dodecavanadate-hexa-zinc tridecahydrate'
_symmetry_cell_setting           rhombohedral
_symmetry_space_group_name_H-M   'R -3'
_symmetry_Int_Tables_number      148
_space_group_name_Hall           '-R 3'
loop_
_symmetry_equiv_pos_site_id
_symmetry_equiv_pos_as_xyz
1 x,y,z
2 -y,x-y,z
3 -x+y,-x,z
4 2/3+x,1/3+y,1/3+z
5 2/3-y,1/3+x-y,1/3+z
6 2/3-x+y,1/3-x,1/3+z
7 1/3+x,2/3+y,2/3+z
8 1/3-y,2/3+x-y,2/3+z
9 1/3-x+y,2/3-x,2/3+z
10 -x,-y,-z
11 y,-x+y,-z
12 x-y,x,-z
13 1/3-x,2/3-y,2/3-z
14 1/3+y,2/3-x+y,2/3-z
15 1/3+x-y,2/3+x,2/3-z
16 2/3-x,1/3-y,1/3-z
17 2/3+y,1/3-x+y,1/3-z
18 2/3+x-y,1/3+x,1/3-z
_cell_length_a                   20.686(3)
_cell_length_b                   20.686(3)
_cell_length_c                   20.915(4)
_cell_angle_alpha                90
_cell_angle_beta                 90
_cell_angle_gamma                120
_cell_volume                     7750.71
_exptl_crystal_colour            black
_exptl_crystal_description       polyhedral
_cell_formula_units_Z            3
loop_
_atom_site_label
_atom_site_type_symbol
_atom_site_fract_x
_atom_site_fract_y
_atom_site_fract_z
V1 V 0.66292(2) 0.17499(2) 0.92286(2)
V2 V 0.56361(2) 0.23292(2) 0.96749(2)
Zn1 Zn 0.46254(3) -0.05011(3) 0.84827(3)
N1 N 0.3693(3) -0.1382(3) 0.8916(3)
H1 H 0.37460 -0.17870 0.89290
H2 H 0.36530 -0.12530 0.93190
N2 N 0.3816(4) -0.0615(3) 0.7816(3)
H3 H 0.38030 -0.01870 0.77850
H4 H 0.39210 -0.07290 0.74290
N3 N 0.5032(3) -0.1051(3) 0.7925(3)
H5 H 0.46530 -0.14760 0.77670
H6 H 0.52990 -0.07570 0.75960
N4 N 0.5345(2) -0.0474(3) 0.9179(3)
H7 H 0.55630 -0.00330 0.93840
H8 H 0.51010 -0.08430 0.94650
C1 C 0.3062(6) -0.1574(5) 0.8577(4)
H9 H 0.28610 -0.20910 0.84710
H10 H 0.27050 -0.15460 0.88520
C2 C 0.3099(6) -0.1213(5) 0.8015(5)
H11 H 0.27660 -0.10200 0.80690
H12 H 0.28890 -0.15850 0.76840
C3 C 0.5516(4) -0.1211(4) 0.8326(4)
H13 H 0.52110 -0.16740 0.85460
H14 H 0.58710 -0.12650 0.80690
C4 C 0.5917(4) -0.0585(4) 0.8807(3)
H15 H 0.62540 -0.01290 0.85910
H16 H 0.62000 -0.07100 0.90940
B1 B 0.59318(17) 0.10166(17) 0.79404(18)
B2 B 0.50270(17) 0.10270(17) 0.87060(18)
O1 O 0.56242(10) 0.15643(10) 0.91118(11)
O2 O 0.66304(10) 0.13864(10) 0.83394(10)
O3 O 0.5274(1) 0.06188(10) 0.83241(11)
O4 O 0.44113(11) 0.04482(11) 0.91132(11)
B3 B 0.38680(19) 0.05670(18) 0.93243(18)
O5 O 0.66237(12) 0.11279(12) 0.97042(12)
O6 O 0.66434(10) 0.25410(11) 0.97272(10)
O7 O 0.52395(13) 0.19494(13) 1.03358(12)
O8 O 0.76372(10) 0.25532(10) 0.90987(10)
O9 O 0.59798(11) 0.04782(11) 0.75103(11)
O10 O 0.33091(12) 0.00569(12) 0.97185(13)
O2M O 0.471973(100) 0.142267(100) 0.832727(100)
V1M V 0.508323(20) 0.178737(20) 0.743807(20)
O1M O 0.489763(100) 0.260677(100) 0.755487(110)
V2M V 0.566253(20) 0.335977(20) 0.699177(20)
O6M O 0.587433(100) 0.256427(110) 0.693947(100)
O5M O 0.446123(120) 0.117087(120) 0.696247(120)
O8M O 0.588653(100) 0.158267(100) 0.756797(100)
V2N V 0.664023(20) 0.230277(20) 0.699177(20)
O1N O 0.739323(100) 0.229087(100) 0.755487(110)
V1N V 0.821263(20) 0.329587(20) 0.743807(20)
O2N O 0.857733(100) 0.329707(100) 0.832727(100)
B1N B 0.824853(170) 0.259847(170) 0.872627(180)
O3N O 0.798853(100) 0.194067(100) 0.834257(110)
Zn1N Zn 0.845983(30) 0.129207(30) 0.818397(30)
N1N N 0.840833(300) 0.035967(300) 0.775067(300)
H1N H 0.88663 0.04127 0.77377
H2N H 0.82393 0.03197 0.73477
C1N C 0.796933(600) -0.027133(500) 0.808967(400)
H9N H 0.82853 -0.04723 0.81957
H10N H 0.75843 -0.06283 0.78147
C2N C 0.764533(600) -0.023433(500) 0.865167(500)
N2N N 0.776433(400) 0.048267(300) 0.885067(300)
N3N N 0.941633(300) 0.169867(300) 0.874167(300)
H5N H 0.94623 0.13197 0.88997
H6N H 0.93893 0.19657 0.90707
C3N C 1.006033(400) 0.218267(400) 0.834067(400)
H13N H 1.02183 0.18777 0.81207
H14N H 1.04693 0.25377 0.85977
C4N C 0.983533(400) 0.258367(400) 0.785967(300)
N4N N 0.915233(200) 0.201167(300) 0.748767(300)
H7N H 0.89293 0.22297 0.72827
H8N H 0.92773 0.17677 0.72017
H15N H 0.97163 0.29207 0.80757
H16N H 1.02433 0.28667 0.75727
H3N H 0.73233 0.04697 0.88817
H4N H 0.79833 0.05877 0.92377
H11N H 0.71193 -0.05673 0.85977
H12N H 0.78073 -0.04443 0.89827
B2N B 0.733333(170) 0.169367(170) 0.796067(180)
O4N O 0.729643(110) 0.107797(110) 0.755347(110)
B3N B 0.663433(190) 0.053467(180) 0.734237(180)
O10N O 0.658553(120) -0.002423(120) 0.694817(130)
V2A V 0.76708(2) 0.33069(2) 0.96749(2)
O1A O 0.84357(10) 0.40599(10) 0.91118(11)
V1A V 0.82501(2) 0.48793(2) 0.92286(2)
O2A O 0.86136(10) 0.5244(1) 0.83394(10)
B1A B 0.89834(17) 0.49152(17) 0.79404(18)
O3A O 0.93812(10) 0.46552(10) 0.83241(11)
Zn1A Zn 1.05011(3) 0.51265(3) 0.84827(3)
N1A N 1.1382(3) 0.5075(3) 0.8916(3)
H1A H 1.17870 0.55330 0.89290
H2A H 1.12530 0.49060 0.93190
C1A C 1.1574(6) 0.4636(5) 0.8577(4)
H9A H 1.20910 0.49520 0.84710
H10A H 1.15460 0.42510 0.88520
C2A C 1.1213(6) 0.4312(5) 0.8015(5)
N2A N 1.0615(4) 0.4431(3) 0.7816(3)
N3A N 1.1051(3) 0.6083(3) 0.7925(3)
H5A H 1.14760 0.61290 0.77670
H6A H 1.07570 0.60560 0.75960
C3A C 1.1211(4) 0.6727(4) 0.8326(4)
H13A H 1.16740 0.68850 0.85460
H14A H 1.12650 0.71360 0.80690
C4A C 1.0585(4) 0.6502(4) 0.8807(3)
N4A N 1.0474(2) 0.5819(3) 0.9179(3)
H7A H 1.00330 0.55960 0.93840
H8A H 1.08430 0.59440 0.94650
H15A H 1.01290 0.63830 0.85910
H16A H 1.07100 0.69100 0.90940
H3A H 1.01870 0.39900 0.77850
H4A H 1.07290 0.46500 0.74290
H11A H 1.10200 0.37860 0.80690
H12A H 1.15850 0.44740 0.76840
B2A B 0.89730(17) 0.40000(17) 0.87060(18)
O4A O 0.95518(11) 0.39631(11) 0.91132(11)
B3A B 0.94330(19) 0.33010(18) 0.93243(18)
O9N O 0.883493(110) 0.264647(110) 0.915637(110)
O10A O 0.99431(12) 0.32522(12) 0.97185(13)
O8N O 0.841733(100) 0.430387(100) 0.756797(100)
O5N O 0.882913(120) 0.329037(120) 0.696247(120)
O6N O 0.743573(100) 0.331007(110) 0.693947(100)
O7N O 0.662343(130) 0.190617(130) 0.633087(120)
V2L V 0.769723(20) 0.433747(20) 0.699177(20)
O1L O 0.770913(100) 0.510237(100) 0.755487(110)
V1L V 0.670413(20) 0.491677(20) 0.743807(20)
O2L O 0.670293(100) 0.528027(100) 0.832727(100)
B1L B 0.740153(170) 0.565007(170) 0.872627(180)
O3L O 0.805933(100) 0.604787(100) 0.834257(110)
Zn1L Zn 0.870793(30) 0.716777(30) 0.818397(30)
N1L N 0.964033(300) 0.804867(300) 0.775067(300)
H1L H 0.95873 0.84537 0.77377
H2L H 0.96803 0.79197 0.73477
C1L C 1.027133(600) 0.824067(500) 0.808967(400)
H9L H 1.04723 0.87577 0.81957
H10L H 1.06283 0.82127 0.78147
C2L C 1.023433(600) 0.787967(500) 0.865167(500)
N2L N 0.951733(400) 0.728167(300) 0.885067(300)
N3L N 0.830133(300) 0.771767(300) 0.874167(300)
H5L H 0.86803 0.81427 0.88997
H6L H 0.80343 0.74237 0.90707
C3L C 0.781733(400) 0.787767(400) 0.834067(400)
H13L H 0.81223 0.83407 0.81207
H14L H 0.74623 0.79317 0.85977
C4L C 0.741633(400) 0.725167(400) 0.785967(300)
N4L N 0.798833(200) 0.714067(300) 0.748767(300)
H7L H 0.77703 0.66997 0.72827
H8L H 0.82323 0.75097 0.72017
H15L H 0.70793 0.67957 0.80757
H16L H 0.71333 0.73767 0.75727
H3L H 0.95303 0.68537 0.88817
H4L H 0.94123 0.73957 0.92377
H11L H 1.05673 0.76867 0.85977
H12L H 1.04443 0.82517 0.89827
B2L B 0.830633(170) 0.563967(170) 0.796067(180)
O4L O 0.892203(110) 0.621847(110) 0.755347(110)
B3L B 0.946533(190) 0.609967(180) 0.734237(180)
O9A O 0.95218(11) 0.55016(11) 0.75103(11)
O10L O 1.002423(120) 0.660977(120) 0.694817(130)
O8A O 0.74468(10) 0.5084(1) 0.90987(10)
O5A O 0.88721(12) 0.54958(12) 0.97042(12)
O6A O 0.7459(1) 0.41024(11) 0.97272(10)
O7A O 0.80506(13) 0.32901(13) 1.03358(12)
V2B V 0.66931(2) 0.43639(2) 0.96749(2)
O1B O 0.59401(10) 0.43758(10) 0.91118(11)
V1B V 0.51207(2) 0.33708(2) 0.92286(2)
O2B O 0.4756(1) 0.33696(10) 0.83394(10)
B1B B 0.50848(17) 0.40682(17) 0.79404(18)
O3B O 0.53448(10) 0.4726(1) 0.83241(11)
Zn1B Zn 0.48735(3) 0.53746(3) 0.84827(3)
N1B N 0.4925(3) 0.6307(3) 0.8916(3)
H1B H 0.44670 0.62540 0.89290
H2B H 0.50940 0.63470 0.93190
C1B C 0.5364(6) 0.6938(5) 0.8577(4)
H9B H 0.50480 0.71390 0.84710
H10B H 0.57490 0.72950 0.88520
C2B C 0.5688(6) 0.6901(5) 0.8015(5)
N2B N 0.5569(4) 0.6184(3) 0.7816(3)
N3B N 0.3917(3) 0.4968(3) 0.7925(3)
H5B H 0.38710 0.53470 0.77670
H6B H 0.39440 0.47010 0.75960
C3B C 0.3273(4) 0.4484(4) 0.8326(4)
H13B H 0.31150 0.47890 0.85460
H14B H 0.28640 0.41290 0.80690
C4B C 0.3498(4) 0.4083(4) 0.8807(3)
N4B N 0.4181(2) 0.4655(3) 0.9179(3)
H7B H 0.44040 0.44370 0.93840
H8B H 0.40560 0.48990 0.94650
H15B H 0.36170 0.37460 0.85910
H16B H 0.30900 0.38000 0.90940
H3B H 0.60100 0.61970 0.77850
H4B H 0.53500 0.60790 0.74290
H11B H 0.62140 0.72340 0.80690
H12B H 0.55260 0.71110 0.76840
B2B B 0.60000(17) 0.49730(17) 0.87060(18)
O4B O 0.60369(11) 0.55887(11) 0.91132(11)
B3B B 0.66990(19) 0.61320(18) 0.93243(18)
O9L O 0.735353(110) 0.618847(110) 0.915637(110)
O10B O 0.67478(12) 0.66909(12) 0.97185(13)
O8L O 0.569613(100) 0.411347(100) 0.756797(100)
O5L O 0.670963(120) 0.553877(120) 0.696247(120)
O6L O 0.668993(100) 0.412567(110) 0.693947(100)
O7L O 0.809383(130) 0.471727(130) 0.633087(120)
O7M O 0.528273(130) 0.337657(130) 0.633087(120)
O9B O 0.44984(11) 0.40202(11) 0.75103(11)
B3M B 0.390033(190) 0.336567(180) 0.734237(180)
O4M O 0.378153(110) 0.270357(110) 0.755347(110)
B2M B 0.436033(170) 0.266667(170) 0.796067(180)
O3M O 0.395213(100) 0.201147(100) 0.834257(110)
Zn1M Zn 0.283223(30) 0.154017(30) 0.818397(30)
N1M N 0.195133(300) 0.159167(300) 0.775067(300)
H1M H 0.15463 0.11337 0.77377
H2M H 0.20803 0.17607 0.73477
C1M C 0.175933(600) 0.203067(500) 0.808967(400)
H9M H 0.12423 0.17147 0.81957
H10M H 0.17873 0.24157 0.78147
C2M C 0.212033(600) 0.235467(500) 0.865167(500)
N2M N 0.271833(400) 0.223567(300) 0.885067(300)
N3M N 0.228233(300) 0.058367(300) 0.874167(300)
H5M H 0.18573 0.05377 0.88997
H6M H 0.25763 0.06107 0.90707
C3M C 0.212233(400) -0.006033(400) 0.834067(400)
H13M H 0.16593 -0.02183 0.81207
H14M H 0.20683 -0.04693 0.85977
C4M C 0.274833(400) 0.016467(400) 0.785967(300)
N4M N 0.285933(200) 0.084767(300) 0.748767(300)
H7M H 0.33003 0.10707 0.72827
H8M H 0.24903 0.07227 0.72017
H15M H 0.32043 0.02837 0.80757
H16M H 0.26233 -0.02433 0.75727
H3M H 0.31463 0.26767 0.88817
H4M H 0.26043 0.20167 0.92377
H11M H 0.23133 0.28807 0.85977
H12M H 0.17483 0.21927 0.89827
B1M B 0.434993(170) 0.175147(170) 0.872627(180)
O8B O 0.4916(1) 0.23628(10) 0.90987(10)
O5B O 0.45042(12) 0.33763(12) 0.97042(12)
O6B O 0.58976(10) 0.33566(11) 0.97272(10)
O7B O 0.67099(13) 0.47605(13) 1.03358(12)
O9M O 0.381153(110) 0.116507(110) 0.915637(110)
O10M O 0.339023(120) 0.341447(120) 0.694817(130)
loop_
_geom_bond_atom_site_label_1
_geom_bond_atom_site_label_2
_geom_bond_site_symmetry_1
_geom_bond_site_symmetry_2
V1 O1 1_555 1_555
V1 O2 1_555 1_555
V1 O5 1_555 1_555
V1 O6 1_555 1_555
V1 O8 1_555 1_555
V2 O1 1_555 1_555
V2 O6 1_555 1_555
V2 O7 1_555 1_555
V2 O8B 1_555 1_555
V2 O6B 1_555 1_555
Zn1 N1 1_555 1_555
Zn1 N2 1_555 1_555
Zn1 N3 1_555 1_555
Zn1 N4 1_555 1_555
Zn1 O3 1_555 1_555
N1 H1 1_555 1_555
N1 H2 1_555 1_555
N1 C1 1_555 1_555
N2 H3 1_555 1_555
N2 H4 1_555 1_555
N2 C2 1_555 1_555
N3 H5 1_555 1_555
N3 H6 1_555 1_555
N3 C3 1_555 1_555
N4 H7 1_555 1_555
N4 H8 1_555 1_555
N4 C4 1_555 1_555
C1 H9 1_555 1_555
C1 H10 1_555 1_555
C1 C2 1_555 1_555
C2 H11 1_555 1_555
C2 H12 1_555 1_555
C3 H13 1_555 1_555
C3 H14 1_555 1_555
C3 C4 1_555 1_555
C4 H15 1_555 1_555
C4 H16 1_555 1_555
B1 O2 1_555 1_555
B1 O3 1_555 1_555
B1 O9 1_555 1_555
B1 O8M 1_555 1_555
B2 O1 1_555 1_555
B2 O3 1_555 1_555
B2 O4 1_555 1_555
B2 O2M 1_555 1_555
O2 B2N 1_555 1_555
O4 B3 1_555 1_555
B3 O10 1_555 1_555
B3 O9M 1_555 1_555
O6 V2A 1_555 1_555
O8 B1N 1_555 1_555
O8 V2A 1_555 1_555
O9 B3N 1_555 1_555
O2M V1M 1_555 1_555
O2M B1M 1_555 1_555
V1M O1M 1_555 1_555
V1M O6M 1_555 1_555
V1M O5M 1_555 1_555
V1M O8M 1_555 1_555
O1M V2M 1_555 1_555
O1M B2M 1_555 1_555
V2M O6M 1_555 1_555
V2M O8L 1_555 1_555
V2M O6L 1_555 1_555
V2M O7M 1_555 1_555
O6M V2N 1_555 1_555
O8M V2N 1_555 1_555
V2N O1N 1_555 1_555
V2N O6N 1_555 1_555
V2N O7N 1_555 1_555
O1N V1N 1_555 1_555
O1N B2N 1_555 1_555
V1N O2N 1_555 1_555
V1N O8N 1_555 1_555
V1N O5N 1_555 1_555
V1N O6N 1_555 1_555
O2N B1N 1_555 1_555
O2N B2A 1_555 1_555
B1N O3N 1_555 1_555
B1N O9N 1_555 1_555
O3N Zn1N 1_555 1_555
O3N B2N 1_555 1_555
Zn1N N1N 1_555 1_555
Zn1N N2N 1_555 1_555
Zn1N N3N 1_555 1_555
Zn1N N4N 1_555 1_555
N1N H1N 1_555 1_555
N1N H2N 1_555 1_555
N1N C1N 1_555 1_555
C1N H9N 1_555 1_555
C1N H10N 1_555 1_555
C1N C2N 1_555 1_555
C2N N2N 1_555 1_555
C2N H11N 1_555 1_555
C2N H12N 1_555 1_555
N2N H3N 1_555 1_555
N2N H4N 1_555 1_555
N3N H5N 1_555 1_555
N3N H6N 1_555 1_555
N3N C3N 1_555 1_555
C3N H13N 1_555 1_555
C3N H14N 1_555 1_555
C3N C4N 1_555 1_555
C4N N4N 1_555 1_555
C4N H15N 1_555 1_555
C4N H16N 1_555 1_555
N4N H7N 1_555 1_555
N4N H8N 1_555 1_555
B2N O4N 1_555 1_555
O4N B3N 1_555 1_555
B3N O10N 1_555 1_555
V2A O1A 1_555 1_555
V2A O6A 1_555 1_555
V2A O7A 1_555 1_555
O1A V1A 1_555 1_555
O1A B2A 1_555 1_555
V1A O2A 1_555 1_555
V1A O8A 1_555 1_555
V1A O5A 1_555 1_555
V1A O6A 1_555 1_555
O2A B1A 1_555 1_555
O2A B2L 1_555 1_555
B1A O3A 1_555 1_555
B1A O8N 1_555 1_555
B1A O9A 1_555 1_555
O3A Zn1A 1_555 1_555
O3A B2A 1_555 1_555
Zn1A N1A 1_555 1_555
Zn1A N2A 1_555 1_555
Zn1A N3A 1_555 1_555
Zn1A N4A 1_555 1_555
N1A H1A 1_555 1_555
N1A H2A 1_555 1_555
N1A C1A 1_555 1_555
C1A H9A 1_555 1_555
C1A H10A 1_555 1_555
C1A C2A 1_555 1_555
C2A N2A 1_555 1_555
C2A H11A 1_555 1_555
C2A H12A 1_555 1_555
N2A H3A 1_555 1_555
N2A H4A 1_555 1_555
N3A H5A 1_555 1_555
N3A H6A 1_555 1_555
N3A C3A 1_555 1_555
C3A H13A 1_555 1_555
C3A H14A 1_555 1_555
C3A C4A 1_555 1_555
C4A N4A 1_555 1_555
C4A H15A 1_555 1_555
C4A H16A 1_555 1_555
N4A H7A 1_555 1_555
N4A H8A 1_555 1_555
B2A O4A 1_555 1_555
O4A B3A 1_555 1_555
B3A O9N 1_555 1_555
B3A O10A 1_555 1_555
O8N V2L 1_555 1_555
O6N V2L 1_555 1_555
V2L O1L 1_555 1_555
V2L O6L 1_555 1_555
V2L O7L 1_555 1_555
O1L V1L 1_555 1_555
O1L B2L 1_555 1_555
V1L O2L 1_555 1_555
V1L O8L 1_555 1_555
V1L O5L 1_555 1_555
V1L O6L 1_555 1_555
O2L B1L 1_555 1_555
O2L B2B 1_555 1_555
B1L O3L 1_555 1_555
B1L O8A 1_555 1_555
B1L O9L 1_555 1_555
O3L Zn1L 1_555 1_555
O3L B2L 1_555 1_555
Zn1L N1L 1_555 1_555
Zn1L N2L 1_555 1_555
Zn1L N3L 1_555 1_555
Zn1L N4L 1_555 1_555
N1L H1L 1_555 1_555
N1L H2L 1_555 1_555
N1L C1L 1_555 1_555
C1L H9L 1_555 1_555
C1L H10L 1_555 1_555
C1L C2L 1_555 1_555
C2L N2L 1_555 1_555
C2L H11L 1_555 1_555
C2L H12L 1_555 1_555
N2L H3L 1_555 1_555
N2L H4L 1_555 1_555
N3L H5L 1_555 1_555
N3L H6L 1_555 1_555
N3L C3L 1_555 1_555
C3L H13L 1_555 1_555
C3L H14L 1_555 1_555
C3L C4L 1_555 1_555
C4L N4L 1_555 1_555
C4L H15L 1_555 1_555
C4L H16L 1_555 1_555
N4L H7L 1_555 1_555
N4L H8L 1_555 1_555
B2L O4L 1_555 1_555
O4L B3L 1_555 1_555
B3L O9A 1_555 1_555
B3L O10L 1_555 1_555
O8A V2B 1_555 1_555
O6A V2B 1_555 1_555
V2B O1B 1_555 1_555
V2B O6B 1_555 1_555
V2B O7B 1_555 1_555
O1B V1B 1_555 1_555
O1B B2B 1_555 1_555
V1B O2B 1_555 1_555
V1B O8B 1_555 1_555
V1B O5B 1_555 1_555
V1B O6B 1_555 1_555
O2B B1B 1_555 1_555
O2B B2M 1_555 1_555
B1B O3B 1_555 1_555
B1B O8L 1_555 1_555
B1B O9B 1_555 1_555
O3B Zn1B 1_555 1_555
O3B B2B 1_555 1_555
Zn1B N1B 1_555 1_555
Zn1B N2B 1_555 1_555
Zn1B N3B 1_555 1_555
Zn1B N4B 1_555 1_555
N1B H1B 1_555 1_555
N1B H2B 1_555 1_555
N1B C1B 1_555 1_555
C1B H9B 1_555 1_555
C1B H10B 1_555 1_555
C1B C2B 1_555 1_555
C2B N2B 1_555 1_555
C2B H11B 1_555 1_555
C2B H12B 1_555 1_555
N2B H3B 1_555 1_555
N2B H4B 1_555 1_555
N3B H5B 1_555 1_555
N3B H6B 1_555 1_555
N3B C3B 1_555 1_555
C3B H13B 1_555 1_555
C3B H14B 1_555 1_555
C3B C4B 1_555 1_555
C4B N4B 1_555 1_555
C4B H15B 1_555 1_555
C4B H16B 1_555 1_555
N4B H7B 1_555 1_555
N4B H8B 1_555 1_555
B2B O4B 1_555 1_555
O4B B3B 1_555 1_555
B3B O9L 1_555 1_555
B3B O10B 1_555 1_555
O9B B3M 1_555 1_555
B3M O4M 1_555 1_555
B3M O10M 1_555 1_555
O4M B2M 1_555 1_555
B2M O3M 1_555 1_555
O3M Zn1M 1_555 1_555
O3M B1M 1_555 1_555
Zn1M N1M 1_555 1_555
Zn1M N2M 1_555 1_555
Zn1M N3M 1_555 1_555
Zn1M N4M 1_555 1_555
N1M H1M 1_555 1_555
N1M H2M 1_555 1_555
N1M C1M 1_555 1_555
C1M H9M 1_555 1_555
C1M H10M 1_555 1_555
C1M C2M 1_555 1_555
C2M N2M 1_555 1_555
C2M H11M 1_555 1_555
C2M H12M 1_555 1_555
N2M H3M 1_555 1_555
N2M H4M 1_555 1_555
N3M H5M 1_555 1_555
N3M H6M 1_555 1_555
N3M C3M 1_555 1_555
C3M H13M 1_555 1_555
C3M H14M 1_555 1_555
C3M C4M 1_555 1_555
C4M N4M 1_555 1_555
C4M H15M 1_555 1_555
C4M H16M 1_555 1_555
N4M H7M 1_555 1_555
N4M H8M 1_555 1_555
B1M O8B 1_555 1_555
B1M O9M 1_555 1_555

#END
